
     RDKit          2D

 20 22  0  0  0  0  0  0  0  0999 V2000
    0.7145   -0.4125    0.0000 O   0  0  0  0  0  0  0  0  0  0  0  0
    0.7145   -1.2375    0.0000 C   0  0  0  0  0  0  0  0  0  0  0  0
    1.3819   -1.7224    0.0000 N   0  0  0  0  0  0  0  0  0  0  0  0
    1.1270   -2.5070    0.0000 C   0  0  0  0  0  0  0  0  0  0  0  0
    1.6119   -3.1745    0.0000 O   0  0  0  0  0  0  0  0  0  0  0  0
    0.3020   -2.5070    0.0000 C   0  0  0  0  0  0  0  0  0  0  0  0
    0.0470   -1.7224    0.0000 C   0  0  0  0  0  0  0  0  0  0  0  0
   -0.7376   -1.4675    0.0000 N   0  0  0  0  0  0  0  0  0  0  0  0
   -0.9091   -0.6605    0.0000 C   0  0  0  0  0  0  0  0  0  0  0  0
   -1.6937   -0.4056    0.0000 C   0  0  0  0  0  0  0  0  0  0  0  0
   -1.8653    0.4014    0.0000 C   0  0  0  0  0  0  0  0  0  0  0  0
   -1.2522    0.9534    0.0000 C   0  0  0  0  0  0  0  0  0  0  0  0
   -0.4675    0.6985    0.0000 C   0  0  0  0  0  0  0  0  0  0  0  0
   -0.2960   -0.1085    0.0000 C   0  0  0  0  0  0  0  0  0  0  0  0
   -0.1830   -3.1745    0.0000 C   0  0  0  0  0  0  0  0  0  0  0  0
    0.1526   -3.9282    0.0000 C   0  0  0  0  0  0  0  0  0  0  0  0
   -0.3323   -4.5956    0.0000 C   0  0  0  0  0  0  0  0  0  0  0  0
   -1.1528   -4.5094    0.0000 C   0  0  0  0  0  0  0  0  0  0  0  0
   -1.4884   -3.7557    0.0000 C   0  0  0  0  0  0  0  0  0  0  0  0
   -1.0034   -3.0882    0.0000 C   0  0  0  0  0  0  0  0  0  0  0  0
  1  2  2  0
  2  3  1  0
  3  4  1  0
  4  5  2  0
  4  6  1  0
  6  7  2  0
  2  7  1  0
  7  8  1  0
  8  9  1  0
  9 10  2  0
 10 11  1  0
 11 12  2  0
 12 13  1  0
 13 14  2  0
  9 14  1  0
  6 15  1  0
 15 16  2  0
 16 17  1  0
 17 18  2  0
 18 19  1  0
 19 20  2  0
 15 20  1  0
M  END
>  <ACTIVITY>  (1) 
590

$$$$

     RDKit          2D

 16 18  0  0  0  0  0  0  0  0999 V2000
    4.2917    0.0458    0.0000 C   0  0  0  0  0  0  0  0  0  0  0  0
    4.2917   -0.7792    0.0000 C   0  0  0  0  0  0  0  0  0  0  0  0
    5.0750   -1.0375    0.0000 N   0  0  0  0  0  0  0  0  0  0  0  0
    5.0750    0.3000    0.0000 C   0  0  0  0  0  0  0  0  0  0  0  0
    3.5750    0.4583    0.0000 C   0  0  0  0  0  0  0  0  0  0  0  0
    3.5750   -1.2000    0.0000 N   0  0  0  0  0  0  0  0  0  0  0  0
    5.5625   -0.3667    0.0000 C   0  0  0  0  0  0  0  0  0  0  0  0
    2.8625    0.0375    0.0000 C   0  0  0  0  0  0  0  0  0  0  0  0
    2.8625   -0.7875    0.0000 C   0  0  0  0  0  0  0  0  0  0  0  0
    2.1500    0.4500    0.0000 C   0  0  0  0  0  0  0  0  0  0  0  0
    5.3250    1.0833    0.0000 N   0  0  0  0  0  0  0  0  0  0  0  0
    2.1500    1.2833    0.0000 C   0  0  0  0  0  0  0  0  0  0  0  0
    1.4417    0.0458    0.0000 C   0  0  0  0  0  0  0  0  0  0  0  0
    0.7250    0.4500    0.0000 C   0  0  0  0  0  0  0  0  0  0  0  0
    1.4375    1.6958    0.0000 C   0  0  0  0  0  0  0  0  0  0  0  0
    0.7167    1.2833    0.0000 C   0  0  0  0  0  0  0  0  0  0  0  0
  2  1  2  0
  3  2  1  0
  4  1  1  0
  5  1  1  0
  6  2  1  0
  7  4  2  0
  8  5  2  0
  9  8  1  0
 10  8  1  0
 11  4  1  0
 12 10  2  0
 13 10  1  0
 14 13  2  0
 15 12  1  0
 16 14  1  0
  3  7  1  0
  9  6  2  0
 15 16  2  0
M  END
>  <ACTIVITY>  (2) 
23000

$$$$

     RDKit          2D

 16 18  0  0  0  0  0  0  0  0999 V2000
    3.6292   -0.2375    0.0000 C   0  0  0  0  0  0  0  0  0  0  0  0
    4.9042   -0.6500    0.0000 N   0  0  0  0  0  0  0  0  0  0  0  0
    4.4167    0.0208    0.0000 C   0  0  0  0  0  0  0  0  0  0  0  0
    3.6292   -1.0625    0.0000 C   0  0  0  0  0  0  0  0  0  0  0  0
    4.4167   -1.3167    0.0000 O   0  0  0  0  0  0  0  0  0  0  0  0
    2.9167    0.1750    0.0000 C   0  0  0  0  0  0  0  0  0  0  0  0
    2.9167   -1.4792    0.0000 N   0  0  0  0  0  0  0  0  0  0  0  0
    2.2042   -0.2375    0.0000 C   0  0  0  0  0  0  0  0  0  0  0  0
    2.2042   -1.0667    0.0000 C   0  0  0  0  0  0  0  0  0  0  0  0
    1.4917    0.1708    0.0000 C   0  0  0  0  0  0  0  0  0  0  0  0
    4.6667    0.8083    0.0000 N   0  0  0  0  0  0  0  0  0  0  0  0
    1.4917    1.0000    0.0000 C   0  0  0  0  0  0  0  0  0  0  0  0
    0.7792   -0.2375    0.0000 C   0  0  0  0  0  0  0  0  0  0  0  0
    0.0667    0.1708    0.0000 C   0  0  0  0  0  0  0  0  0  0  0  0
    0.7792    1.4125    0.0000 C   0  0  0  0  0  0  0  0  0  0  0  0
    0.0625    1.0000    0.0000 C   0  0  0  0  0  0  0  0  0  0  0  0
  2  3  2  0
  3  1  1  0
  4  1  2  0
  5  4  1  0
  6  1  1  0
  7  4  1  0
  8  6  2  0
  9  8  1  0
 10  8  1  0
 11  3  1  0
 12 10  2  0
 13 10  1  0
 14 13  2  0
 15 12  1  0
 16 14  1  0
  5  2  1  0
  9  7  2  0
 15 16  2  0
M  END
>  <ACTIVITY>  (3) 
23000

$$$$

     RDKit          2D

 17 19  0  0  0  0  0  0  0  0999 V2000
    3.6292   -0.5792    0.0000 C   0  0  0  0  0  0  0  0  0  0  0  0
    4.9042   -0.9917    0.0000 N   0  0  0  0  0  0  0  0  0  0  0  0
    3.6292   -1.4042    0.0000 C   0  0  0  0  0  0  0  0  0  0  0  0
    4.4167   -1.6542    0.0000 N   0  0  0  0  0  0  0  0  0  0  0  0
    4.4167   -0.3167    0.0000 C   0  0  0  0  0  0  0  0  0  0  0  0
    2.9167   -1.8167    0.0000 N   0  0  0  0  0  0  0  0  0  0  0  0
    2.9167   -0.1667    0.0000 C   0  0  0  0  0  0  0  0  0  0  0  0
    2.2042   -0.5792    0.0000 C   0  0  0  0  0  0  0  0  0  0  0  0
    2.2042   -1.4042    0.0000 C   0  0  0  0  0  0  0  0  0  0  0  0
    4.6667    0.4625    0.0000 N   0  0  0  0  0  0  0  0  0  0  0  0
    1.4917   -0.1667    0.0000 C   0  0  0  0  0  0  0  0  0  0  0  0
    4.6750   -2.4417    0.0000 C   0  0  0  0  0  0  0  0  0  0  0  0
    1.4917    0.6583    0.0000 C   0  0  0  0  0  0  0  0  0  0  0  0
    0.7792   -0.5792    0.0000 C   0  0  0  0  0  0  0  0  0  0  0  0
    0.0667   -0.1667    0.0000 C   0  0  0  0  0  0  0  0  0  0  0  0
    0.7792    1.0708    0.0000 C   0  0  0  0  0  0  0  0  0  0  0  0
    0.0625    0.6583    0.0000 C   0  0  0  0  0  0  0  0  0  0  0  0
  2  5  2  0
  3  1  2  0
  4  3  1  0
  5  1  1  0
  6  3  1  0
  7  1  1  0
  8  7  2  0
  9  8  1  0
 10  5  1  0
 11  8  1  0
 12  4  1  0
 13 11  2  0
 14 11  1  0
 15 14  2  0
 16 13  1  0
 17 15  1  0
  4  2  1  0
  9  6  2  0
 16 17  2  0
M  END
>  <ACTIVITY>  (4) 
23000

$$$$

     RDKit          3D

 20 22  0  0  0  0  0  0  0  0999 V2000
    5.3781  -17.2653    0.0000 C   0  0  0  0  0  0  0  0  0  0  0  0
    5.3768  -18.0919    0.0000 C   0  0  0  0  0  0  0  0  0  0  0  0
    6.0890  -18.5044    0.0000 N   0  0  0  0  0  0  0  0  0  0  0  0
    6.0870  -16.8529    0.0000 C   0  0  0  0  0  0  0  0  0  0  0  0
    6.8045  -17.2612    0.0000 C   0  0  0  0  0  0  0  0  0  0  0  0
    6.8050  -18.0919    0.0000 C   0  0  0  0  0  0  0  0  0  0  0  0
    7.5952  -18.3482    0.0000 N   0  0  0  0  0  0  0  0  0  0  0  0
    8.0831  -17.6758    0.0000 N   0  0  0  0  0  0  0  0  0  0  0  0
    7.5943  -17.0041    0.0000 C   0  0  0  0  0  0  0  0  0  0  0  0
    7.8485  -16.2202    0.0000 N   0  0  0  0  0  0  0  0  0  0  0  0
    4.6642  -16.8543    0.0000 C   0  0  0  0  0  0  0  0  0  0  0  0
    4.6648  -16.0291    0.0000 C   0  0  0  0  0  0  0  0  0  0  0  0
    3.9516  -15.6177    0.0000 C   0  0  0  0  0  0  0  0  0  0  0  0
    3.2372  -16.0304    0.0000 C   0  0  0  0  0  0  0  0  0  0  0  0
    3.2406  -16.8588    0.0000 C   0  0  0  0  0  0  0  0  0  0  0  0
    3.9544  -17.2665    0.0000 C   0  0  0  0  0  0  0  0  0  0  0  0
    8.6544  -16.0482    0.0000 S   0  0  0  0  0  0  0  0  0  0  0  0
    9.4453  -15.8322    0.0000 C   0  0  0  0  0  0  0  0  0  0  0  0
    8.8490  -16.8490    0.0000 O   0  0  0  0  0  0  0  0  0  0  0  0
    8.4643  -15.2464    0.0000 O   0  0  0  0  0  0  0  0  0  0  0  0
  4  1  2  0
  9 10  1  0
  5  6  2  0
 11 12  2  0
  2  3  2  0
 12 13  1  0
  3  6  1  0
 13 14  2  0
  1  2  1  0
 14 15  1  0
  5  4  1  0
 15 16  2  0
 16 11  1  0
  1 11  1  0
  6  7  1  0
 10 17  1  0
  7  8  1  0
 17 18  1  0
  8  9  2  0
 17 19  2  0
  9  5  1  0
 17 20  2  0
M  END
>  <ACTIVITY>  (5) 
3572

$$$$

     RDKit          2D

 16 18  0  0  0  0  0  0  0  0999 V2000
    3.2071  -20.9072    0.0000 C   0  0  0  0  0  0  0  0  0  0  0  0
    3.2059  -21.7336    0.0000 C   0  0  0  0  0  0  0  0  0  0  0  0
    3.9198  -22.1459    0.0000 C   0  0  0  0  0  0  0  0  0  0  0  0
    3.9180  -20.4949    0.0000 N   0  0  0  0  0  0  0  0  0  0  0  0
    4.6325  -20.9036    0.0000 C   0  0  0  0  0  0  0  0  0  0  0  0
    4.6374  -21.7336    0.0000 C   0  0  0  0  0  0  0  0  0  0  0  0
    5.4283  -21.9855    0.0000 C   0  0  0  0  0  0  0  0  0  0  0  0
    5.9122  -21.3111    0.0000 N   0  0  0  0  0  0  0  0  0  0  0  0
    5.4204  -20.6425    0.0000 N   0  0  0  0  0  0  0  0  0  0  0  0
    5.6875  -22.7676    0.0000 N   0  0  0  0  0  0  0  0  0  0  0  0
    3.9212  -22.9683    0.0000 C   0  0  0  0  0  0  0  0  0  0  0  0
    3.2055  -23.3789    0.0000 C   0  0  0  0  0  0  0  0  0  0  0  0
    3.2042  -24.2021    0.0000 C   0  0  0  0  0  0  0  0  0  0  0  0
    3.9179  -24.6157    0.0000 C   0  0  0  0  0  0  0  0  0  0  0  0
    4.6343  -24.2001    0.0000 C   0  0  0  0  0  0  0  0  0  0  0  0
    4.6320  -23.3782    0.0000 C   0  0  0  0  0  0  0  0  0  0  0  0
  6  7  1  0
  7  8  2  0
  8  9  1  0
  9  5  1  0
  4  1  2  0
  7 10  1  0
  5  6  2  0
 11 12  2  0
  2  3  2  0
 12 13  1  0
  3  6  1  0
 13 14  2  0
  1  2  1  0
 14 15  1  0
  5  4  1  0
 15 16  2  0
 16 11  1  0
  3 11  1  0
M  END
>  <ACTIVITY>  (6) 
23000

$$$$

     RDKit          3D

 16 18  0  0  0  0  0  0  0  0999 V2000
   -2.5602   -4.9067    0.0000 C   0  0  0  0  0  0  0  0  0  0  0  0
   -2.5616   -5.7333    0.0000 N   0  0  0  0  0  0  0  0  0  0  0  0
   -1.8495   -6.1456    0.0000 C   0  0  0  0  0  0  0  0  0  0  0  0
   -1.8515   -4.4945    0.0000 C   0  0  0  0  0  0  0  0  0  0  0  0
   -1.1342   -4.9028    0.0000 C   0  0  0  0  0  0  0  0  0  0  0  0
   -1.1337   -5.7333    0.0000 C   0  0  0  0  0  0  0  0  0  0  0  0
   -0.3437   -5.9894    0.0000 N   0  0  0  0  0  0  0  0  0  0  0  0
    0.1440   -5.3171    0.0000 N   0  0  0  0  0  0  0  0  0  0  0  0
   -0.3446   -4.6457    0.0000 C   0  0  0  0  0  0  0  0  0  0  0  0
   -0.0905   -3.8619    0.0000 N   0  0  0  0  0  0  0  0  0  0  0  0
   -3.2740   -4.4960    0.0000 C   0  0  0  0  0  0  0  0  0  0  0  0
   -3.2733   -3.6710    0.0000 C   0  0  0  0  0  0  0  0  0  0  0  0
   -3.9864   -3.2597    0.0000 C   0  0  0  0  0  0  0  0  0  0  0  0
   -4.7005   -3.6723    0.0000 C   0  0  0  0  0  0  0  0  0  0  0  0
   -4.6971   -4.5004    0.0000 C   0  0  0  0  0  0  0  0  0  0  0  0
   -3.9835   -4.9079    0.0000 C   0  0  0  0  0  0  0  0  0  0  0  0
  6  7  1  0
  7  8  1  0
  8  9  2  0
  9  5  1  0
  4  1  2  0
  9 10  1  0
  5  6  2  0
 11 12  2  0
  2  3  2  0
 12 13  1  0
  3  6  1  0
 13 14  2  0
  1  2  1  0
 14 15  1  0
  5  4  1  0
 15 16  2  0
 16 11  1  0
  1 11  1  0
M  END
>  <ACTIVITY>  (7) 
1260

$$$$

     RDKit          3D

 16 18  0  0  0  0  0  0  0  0999 V2000
   13.1625    1.1672    0.0000 C   0  0  0  0  0  0  0  0  0  0  0  0
   13.1612    0.3408    0.0000 C   0  0  0  0  0  0  0  0  0  0  0  0
   13.8733   -0.0716    0.0000 N   0  0  0  0  0  0  0  0  0  0  0  0
   13.8713    1.5795    0.0000 C   0  0  0  0  0  0  0  0  0  0  0  0
   14.5885    1.1713    0.0000 C   0  0  0  0  0  0  0  0  0  0  0  0
   14.5891    0.3408    0.0000 C   0  0  0  0  0  0  0  0  0  0  0  0
   15.3790    0.0846    0.0000 N   0  0  0  0  0  0  0  0  0  0  0  0
   15.8668    0.7568    0.0000 N   0  0  0  0  0  0  0  0  0  0  0  0
   15.3782    1.4283    0.0000 C   0  0  0  0  0  0  0  0  0  0  0  0
   15.6323    2.2120    0.0000 N   0  0  0  0  0  0  0  0  0  0  0  0
   12.4488    1.5780    0.0000 C   0  0  0  0  0  0  0  0  0  0  0  0
   12.4495    2.4030    0.0000 C   0  0  0  0  0  0  0  0  0  0  0  0
   11.7364    2.8143    0.0000 C   0  0  0  0  0  0  0  0  0  0  0  0
   11.0223    2.4017    0.0000 C   0  0  0  0  0  0  0  0  0  0  0  0
   11.0257    1.5735    0.0000 C   0  0  0  0  0  0  0  0  0  0  0  0
   11.7393    1.1660    0.0000 C   0  0  0  0  0  0  0  0  0  0  0  0
  6  7  1  0
  7  8  1  0
  8  9  2  0
  9  5  1  0
  4  1  2  0
  9 10  1  0
  5  6  2  0
 11 12  2  0
  2  3  2  0
 12 13  1  0
  3  6  1  0
 13 14  2  0
  1  2  1  0
 14 15  1  0
  5  4  1  0
 15 16  2  0
 16 11  1  0
  1 11  1  0
M  END
>  <ACTIVITY>  (8) 
430

$$$$

     RDKit          3D

 16 18  0  0  0  0  0  0  0  0999 V2000
    4.5265    1.1355    0.0000 C   0  0  0  0  0  0  0  0  0  0  0  0
    4.5252    0.3088    0.0000 N   0  0  0  0  0  0  0  0  0  0  0  0
    5.2374   -0.1037    0.0000 N   0  0  0  0  0  0  0  0  0  0  0  0
    5.2355    1.5478    0.0000 C   0  0  0  0  0  0  0  0  0  0  0  0
    5.9529    1.1395    0.0000 C   0  0  0  0  0  0  0  0  0  0  0  0
    5.9534    0.3088    0.0000 C   0  0  0  0  0  0  0  0  0  0  0  0
    6.7436    0.0525    0.0000 N   0  0  0  0  0  0  0  0  0  0  0  0
    7.2315    0.7250    0.0000 N   0  0  0  0  0  0  0  0  0  0  0  0
    6.7427    1.3966    0.0000 C   0  0  0  0  0  0  0  0  0  0  0  0
    6.9969    2.1806    0.0000 N   0  0  0  0  0  0  0  0  0  0  0  0
    3.8126    1.5464    0.0000 C   0  0  0  0  0  0  0  0  0  0  0  0
    3.8132    2.3716    0.0000 C   0  0  0  0  0  0  0  0  0  0  0  0
    3.1000    2.7830    0.0000 C   0  0  0  0  0  0  0  0  0  0  0  0
    2.3857    2.3703    0.0000 C   0  0  0  0  0  0  0  0  0  0  0  0
    2.3891    1.5420    0.0000 C   0  0  0  0  0  0  0  0  0  0  0  0
    3.1029    1.1343    0.0000 C   0  0  0  0  0  0  0  0  0  0  0  0
  6  7  1  0
  7  8  1  0
  8  9  2  0
  9  5  1  0
  4  1  2  0
  9 10  1  0
  5  6  2  0
 11 12  2  0
  2  3  2  0
 12 13  1  0
  3  6  1  0
 13 14  2  0
  1  2  1  0
 14 15  1  0
  5  4  1  0
 15 16  2  0
 16 11  1  0
  1 11  1  0
M  END
>  <ACTIVITY>  (9) 
530

$$$$

     RDKit          3D

 22 25  0  0  0  0  0  0  0  0999 V2000
   -2.7395    0.1741    0.0000 C   0  0  0  0  0  0  0  0  0  0  0  0
   -2.7408   -0.6527    0.0000 N   0  0  0  0  0  0  0  0  0  0  0  0
   -2.0285   -1.0652    0.0000 N   0  0  0  0  0  0  0  0  0  0  0  0
   -2.0305    0.5863    0.0000 C   0  0  0  0  0  0  0  0  0  0  0  0
   -1.3131    0.1780    0.0000 C   0  0  0  0  0  0  0  0  0  0  0  0
   -1.3125   -0.6527    0.0000 C   0  0  0  0  0  0  0  0  0  0  0  0
   -0.5224   -0.9089    0.0000 N   0  0  0  0  0  0  0  0  0  0  0  0
   -0.0345   -0.2365    0.0000 N   0  0  0  0  0  0  0  0  0  0  0  0
   -0.5233    0.4351    0.0000 C   0  0  0  0  0  0  0  0  0  0  0  0
   -0.2691    1.2191    0.0000 N   0  0  0  0  0  0  0  0  0  0  0  0
   -3.4534    0.5849    0.0000 C   0  0  0  0  0  0  0  0  0  0  0  0
   -3.4527    1.4101    0.0000 C   0  0  0  0  0  0  0  0  0  0  0  0
   -4.1660    1.8215    0.0000 C   0  0  0  0  0  0  0  0  0  0  0  0
   -4.8803    1.4088    0.0000 C   0  0  0  0  0  0  0  0  0  0  0  0
   -4.8769    0.5805    0.0000 C   0  0  0  0  0  0  0  0  0  0  0  0
   -4.1631    0.1728    0.0000 C   0  0  0  0  0  0  0  0  0  0  0  0
   -2.0378    1.4085    0.0000 C   0  0  0  0  0  0  0  0  0  0  0  0
   -1.3243    1.8233    0.0000 C   0  0  0  0  0  0  0  0  0  0  0  0
   -1.3278    2.6466    0.0000 C   0  0  0  0  0  0  0  0  0  0  0  0
   -2.0440    3.0562    0.0000 C   0  0  0  0  0  0  0  0  0  0  0  0
   -2.7582    2.6364    0.0000 C   0  0  0  0  0  0  0  0  0  0  0  0
   -2.7511    1.8144    0.0000 C   0  0  0  0  0  0  0  0  0  0  0  0
  5  6  2  0
 11 12  2  0
  2  3  2  0
 12 13  1  0
  3  6  1  0
 13 14  2  0
  1  2  1  0
 14 15  1  0
  5  4  1  0
 15 16  2  0
 16 11  1  0
  1 11  1  0
  6  7  1  0
  7  8  1  0
 17 18  2  0
  8  9  2  0
 18 19  1  0
  9  5  1  0
 19 20  2  0
  4  1  2  0
 20 21  1  0
  9 10  1  0
 21 22  2  0
 22 17  1  0
  4 17  1  0
M  END
>  <ACTIVITY>  (10) 
250

$$$$

     RDKit          2D

 23 26  0  0  0  0  0  0  0  0999 V2000
    4.7812    4.4104    0.0000 F   0  0  0  0  0  0  0  0  0  0  0  0
    4.7812    3.5854    0.0000 C   0  0  0  0  0  0  0  0  0  0  0  0
    5.4957    3.1729    0.0000 C   0  0  0  0  0  0  0  0  0  0  0  0
    5.4957    2.3479    0.0000 C   0  0  0  0  0  0  0  0  0  0  0  0
    4.7812    1.9354    0.0000 C   0  0  0  0  0  0  0  0  0  0  0  0
    4.7812    1.1104    0.0000 F   0  0  0  0  0  0  0  0  0  0  0  0
    4.0668    2.3479    0.0000 C   0  0  0  0  0  0  0  0  0  0  0  0
    4.0668    3.1729    0.0000 C   0  0  0  0  0  0  0  0  0  0  0  0
    3.3523    1.9354    0.0000 C   0  0  0  0  0  0  0  0  0  0  0  0
    3.3523    1.1104    0.0000 C   0  0  0  0  0  0  0  0  0  0  0  0
    2.6378    0.6979    0.0000 C   0  0  0  0  0  0  0  0  0  0  0  0
    1.9233    1.1104    0.0000 C   0  0  0  0  0  0  0  0  0  0  0  0
    1.1387    0.8555    0.0000 C   0  0  0  0  0  0  0  0  0  0  0  0
    0.8838    0.0709    0.0000 N   0  0  0  0  0  0  0  0  0  0  0  0
    1.4358   -0.5422    0.0000 C   0  0  0  0  0  0  0  0  0  0  0  0
    2.2428   -0.3707    0.0000 O   0  0  0  0  0  0  0  0  0  0  0  0
    1.1809   -1.3268    0.0000 C   0  0  0  0  0  0  0  0  0  0  0  0
    1.3524   -2.1338    0.0000 C   0  0  0  0  0  0  0  0  0  0  0  0
    0.5678   -1.8789    0.0000 C   0  0  0  0  0  0  0  0  0  0  0  0
    0.6538    1.5229    0.0000 N   0  0  0  0  0  0  0  0  0  0  0  0
    1.1387    2.1904    0.0000 N   0  0  0  0  0  0  0  0  0  0  0  0
    1.9233    1.9354    0.0000 C   0  0  0  0  0  0  0  0  0  0  0  0
    2.6378    2.3479    0.0000 C   0  0  0  0  0  0  0  0  0  0  0  0
  1  2  1  0
  2  3  2  0
  3  4  1  0
  4  5  2  0
  5  6  1  0
  5  7  1  0
  7  8  2  0
  2  8  1  0
  7  9  1  0
  9 10  2  0
 10 11  1  0
 11 12  2  0
 12 13  1  0
 13 14  1  0
 14 15  1  0
 15 16  2  0
 15 17  1  0
 17 18  1  0
 18 19  1  0
 17 19  1  0
 13 20  2  0
 20 21  1  0
 21 22  1  0
 12 22  1  0
 22 23  2  0
  9 23  1  0
M  END
>  <ACTIVITY>  (11) 
1000

$$$$

     RDKit          3D

 20 23  0  0  0  0  0  0  0  0999 V2000
   12.9490    0.2887    0.0000 C   0  0  0  0  0  0  0  0  0  0  0  0
   12.9477   -0.5387    0.0000 C   0  0  0  0  0  0  0  0  0  0  0  0
   13.6606   -0.9516    0.0000 C   0  0  0  0  0  0  0  0  0  0  0  0
   13.6586    0.7015    0.0000 C   0  0  0  0  0  0  0  0  0  0  0  0
   14.3766    0.2928    0.0000 C   0  0  0  0  0  0  0  0  0  0  0  0
   14.3771   -0.5387    0.0000 C   0  0  0  0  0  0  0  0  0  0  0  0
   15.1681   -0.7952    0.0000 N   0  0  0  0  0  0  0  0  0  0  0  0
   15.6564   -0.1222    0.0000 N   0  0  0  0  0  0  0  0  0  0  0  0
   15.1672    0.5501    0.0000 C   0  0  0  0  0  0  0  0  0  0  0  0
   15.4216    1.3348    0.0000 N   0  0  0  0  0  0  0  0  0  0  0  0
   16.2284    1.5069    0.0000 C   0  0  0  0  0  0  0  0  0  0  0  0
   16.7807    0.8942    0.0000 O   0  0  0  0  0  0  0  0  0  0  0  0
   16.4771    2.2924    0.0000 C   0  0  0  0  0  0  0  0  0  0  0  0
   17.0897    2.8447    0.0000 C   0  0  0  0  0  0  0  0  0  0  0  0
   16.3051    3.0991    0.0000 C   0  0  0  0  0  0  0  0  0  0  0  0
   12.2337   -0.9522    0.0000 C   0  0  0  0  0  0  0  0  0  0  0  0
   11.4782   -0.6159    0.0000 C   0  0  0  0  0  0  0  0  0  0  0  0
   10.9268   -1.2298    0.0000 S   0  0  0  0  0  0  0  0  0  0  0  0
   11.3404   -1.9438    0.0000 C   0  0  0  0  0  0  0  0  0  0  0  0
   12.1471   -1.7712    0.0000 C   0  0  0  0  0  0  0  0  0  0  0  0
  4  1  2  0
  9 10  1  0
  5  6  2  0
 10 11  1  0
 11 12  2  0
 14 13  1  0
 15 14  1  0
 13 15  1  0
  2  3  2  0
  3  6  1  0
  1  2  1  0
 11 13  1  0
  5  4  1  0
  2 16  1  0
 16 17  2  0
  6  7  1  0
  7  8  1  0
  8  9  2  0
  9  5  1  0
 17 18  1  0
 18 19  1  0
 19 20  2  0
 20 16  1  0
M  END
>  <ACTIVITY>  (12) 
329

$$$$

     RDKit          3D

 20 23  0  0  0  0  0  0  0  0999 V2000
    4.5310    0.3392    0.0000 C   0  0  0  0  0  0  0  0  0  0  0  0
    4.5297   -0.4884    0.0000 C   0  0  0  0  0  0  0  0  0  0  0  0
    5.2427   -0.9013    0.0000 C   0  0  0  0  0  0  0  0  0  0  0  0
    5.2407    0.7519    0.0000 C   0  0  0  0  0  0  0  0  0  0  0  0
    5.9588    0.3432    0.0000 C   0  0  0  0  0  0  0  0  0  0  0  0
    5.9594   -0.4884    0.0000 C   0  0  0  0  0  0  0  0  0  0  0  0
    6.7503   -0.7449    0.0000 N   0  0  0  0  0  0  0  0  0  0  0  0
    7.2387   -0.0717    0.0000 N   0  0  0  0  0  0  0  0  0  0  0  0
    6.7494    0.6006    0.0000 C   0  0  0  0  0  0  0  0  0  0  0  0
    7.0039    1.3854    0.0000 N   0  0  0  0  0  0  0  0  0  0  0  0
    7.8106    1.5574    0.0000 C   0  0  0  0  0  0  0  0  0  0  0  0
    8.3630    0.9447    0.0000 O   0  0  0  0  0  0  0  0  0  0  0  0
    8.0595    2.3429    0.0000 C   0  0  0  0  0  0  0  0  0  0  0  0
    8.6722    2.8954    0.0000 C   0  0  0  0  0  0  0  0  0  0  0  0
    7.8874    3.1497    0.0000 C   0  0  0  0  0  0  0  0  0  0  0  0
    3.8157   -0.9018    0.0000 C   0  0  0  0  0  0  0  0  0  0  0  0
    3.0625   -0.5652    0.0000 S   0  0  0  0  0  0  0  0  0  0  0  0
    2.5097   -1.1776    0.0000 C   0  0  0  0  0  0  0  0  0  0  0  0
    2.9212   -1.8926    0.0000 C   0  0  0  0  0  0  0  0  0  0  0  0
    3.7283   -1.7221    0.0000 C   0  0  0  0  0  0  0  0  0  0  0  0
  4  1  2  0
  9 10  1  0
  5  6  2  0
 10 11  1  0
 11 12  2  0
 14 13  1  0
 15 14  1  0
 13 15  1  0
  2  3  2  0
  3  6  1  0
  1  2  1  0
 11 13  1  0
 16 17  1  0
  5  4  1  0
  6  7  1  0
  7  8  1  0
  8  9  2  0
  9  5  1  0
 17 18  1  0
 18 19  2  0
 19 20  1  0
 20 16  2  0
  2 16  1  0
M  END
>  <ACTIVITY>  (13) 
215

$$$$

     RDKit          3D

 20 23  0  0  0  0  0  0  0  0999 V2000
   -3.6632    0.0459    0.0000 C   0  0  0  0  0  0  0  0  0  0  0  0
   -3.6646   -0.7817    0.0000 C   0  0  0  0  0  0  0  0  0  0  0  0
   -2.9516   -1.1945    0.0000 C   0  0  0  0  0  0  0  0  0  0  0  0
   -2.9536    0.4586    0.0000 C   0  0  0  0  0  0  0  0  0  0  0  0
   -2.2355    0.0498    0.0000 C   0  0  0  0  0  0  0  0  0  0  0  0
   -2.2349   -0.7817    0.0000 C   0  0  0  0  0  0  0  0  0  0  0  0
   -1.4440   -1.0381    0.0000 N   0  0  0  0  0  0  0  0  0  0  0  0
   -0.9557   -0.3650    0.0000 N   0  0  0  0  0  0  0  0  0  0  0  0
   -1.4449    0.3073    0.0000 C   0  0  0  0  0  0  0  0  0  0  0  0
   -1.1905    1.0920    0.0000 N   0  0  0  0  0  0  0  0  0  0  0  0
   -0.3837    1.2640    0.0000 C   0  0  0  0  0  0  0  0  0  0  0  0
    0.1686    0.6513    0.0000 O   0  0  0  0  0  0  0  0  0  0  0  0
   -0.1350    2.0496    0.0000 C   0  0  0  0  0  0  0  0  0  0  0  0
    0.4778    2.6020    0.0000 C   0  0  0  0  0  0  0  0  0  0  0  0
   -0.3070    2.8564    0.0000 C   0  0  0  0  0  0  0  0  0  0  0  0
   -4.3785   -1.1951    0.0000 C   0  0  0  0  0  0  0  0  0  0  0  0
   -5.1341   -0.8588    0.0000 C   0  0  0  0  0  0  0  0  0  0  0  0
   -5.6853   -1.4727    0.0000 O   0  0  0  0  0  0  0  0  0  0  0  0
   -5.2719   -2.1868    0.0000 C   0  0  0  0  0  0  0  0  0  0  0  0
   -4.4650   -2.0141    0.0000 C   0  0  0  0  0  0  0  0  0  0  0  0
  4  1  2  0
  9 10  1  0
  5  6  2  0
 10 11  1  0
 11 12  2  0
 14 13  1  0
 15 14  1  0
 13 15  1  0
  2  3  2  0
  3  6  1  0
  1  2  1  0
 11 13  1  0
  5  4  1  0
  2 16  1  0
 16 17  2  0
  6  7  1  0
  7  8  1  0
  8  9  2  0
  9  5  1  0
 17 18  1  0
 18 19  1  0
 19 20  2  0
 20 16  1  0
M  END
>  <ACTIVITY>  (14) 
35

$$$$

     RDKit          3D

 20 23  0  0  0  0  0  0  0  0999 V2000
    4.2883  -25.8670    0.0000 C   0  0  0  0  0  0  0  0  0  0  0  0
    4.2869  -26.6946    0.0000 C   0  0  0  0  0  0  0  0  0  0  0  0
    4.9999  -27.1075    0.0000 C   0  0  0  0  0  0  0  0  0  0  0  0
    4.9979  -25.4543    0.0000 C   0  0  0  0  0  0  0  0  0  0  0  0
    5.7160  -25.8631    0.0000 C   0  0  0  0  0  0  0  0  0  0  0  0
    5.7165  -26.6946    0.0000 C   0  0  0  0  0  0  0  0  0  0  0  0
    6.5076  -26.9511    0.0000 N   0  0  0  0  0  0  0  0  0  0  0  0
    6.9960  -26.2780    0.0000 N   0  0  0  0  0  0  0  0  0  0  0  0
    6.5067  -25.6057    0.0000 C   0  0  0  0  0  0  0  0  0  0  0  0
    6.7612  -24.8209    0.0000 N   0  0  0  0  0  0  0  0  0  0  0  0
    7.5680  -24.6488    0.0000 C   0  0  0  0  0  0  0  0  0  0  0  0
    8.1204  -25.2615    0.0000 O   0  0  0  0  0  0  0  0  0  0  0  0
    7.8168  -23.8632    0.0000 C   0  0  0  0  0  0  0  0  0  0  0  0
    8.4294  -23.3107    0.0000 C   0  0  0  0  0  0  0  0  0  0  0  0
    7.6447  -23.0564    0.0000 C   0  0  0  0  0  0  0  0  0  0  0  0
    3.5728  -27.1081    0.0000 C   0  0  0  0  0  0  0  0  0  0  0  0
    2.8197  -26.7715    0.0000 N   0  0  0  0  0  0  0  0  0  0  0  0
    2.2668  -27.3838    0.0000 C   0  0  0  0  0  0  0  0  0  0  0  0
    2.6783  -28.0989    0.0000 C   0  0  0  0  0  0  0  0  0  0  0  0
    3.4854  -27.9284    0.0000 C   0  0  0  0  0  0  0  0  0  0  0  0
  4  1  2  0
  9 10  1  0
  5  6  2  0
 10 11  1  0
 11 12  2  0
 14 13  1  0
 15 14  1  0
 13 15  1  0
  2  3  2  0
  3  6  1  0
  1  2  1  0
 11 13  1  0
 16 17  1  0
  5  4  1  0
  6  7  1  0
  7  8  1  0
  8  9  2  0
  9  5  1  0
 17 18  1  0
 18 19  2  0
 19 20  1  0
 20 16  2  0
  2 16  1  0
M  END
>  <ACTIVITY>  (15) 
320

$$$$

     RDKit          3D

 22 25  0  0  0  0  0  0  0  0999 V2000
   -4.5546  -26.2399    0.0000 C   0  0  0  0  0  0  0  0  0  0  0  0
   -4.5380  -27.0660    0.0000 C   0  0  0  0  0  0  0  0  0  0  0  0
   -5.2421  -27.4913    0.0000 C   0  0  0  0  0  0  0  0  0  0  0  0
   -5.2705  -25.8410    0.0000 C   0  0  0  0  0  0  0  0  0  0  0  0
   -5.9799  -26.2622    0.0000 C   0  0  0  0  0  0  0  0  0  0  0  0
   -5.9697  -27.0923    0.0000 C   0  0  0  0  0  0  0  0  0  0  0  0
   -3.8361  -25.0018    0.0000 C   0  0  0  0  0  0  0  0  0  0  0  0
   -3.8374  -25.8281    0.0000 C   0  0  0  0  0  0  0  0  0  0  0  0
   -3.1255  -26.2404    0.0000 C   0  0  0  0  0  0  0  0  0  0  0  0
   -3.1275  -24.5898    0.0000 C   0  0  0  0  0  0  0  0  0  0  0  0
   -2.4105  -24.9979    0.0000 C   0  0  0  0  0  0  0  0  0  0  0  0
   -2.4100  -25.8281    0.0000 C   0  0  0  0  0  0  0  0  0  0  0  0
   -1.6203  -26.0842    0.0000 N   0  0  0  0  0  0  0  0  0  0  0  0
   -1.1327  -25.4121    0.0000 N   0  0  0  0  0  0  0  0  0  0  0  0
   -1.6211  -24.7409    0.0000 C   0  0  0  0  0  0  0  0  0  0  0  0
   -1.3671  -23.9574    0.0000 N   0  0  0  0  0  0  0  0  0  0  0  0
   -0.5616  -23.7856    0.0000 C   0  0  0  0  0  0  0  0  0  0  0  0
   -0.0101  -24.3973    0.0000 O   0  0  0  0  0  0  0  0  0  0  0  0
   -0.3132  -23.0013    0.0000 C   0  0  0  0  0  0  0  0  0  0  0  0
    0.2986  -22.4497    0.0000 C   0  0  0  0  0  0  0  0  0  0  0  0
   -0.4850  -22.1958    0.0000 C   0  0  0  0  0  0  0  0  0  0  0  0
   -5.2248  -28.3147    0.0000 F   0  0  0  0  0  0  0  0  0  0  0  0
 11 12  1  0
  5  6  2  0
  2  3  2  0
  3  6  1  0
  1  2  1  0
 12 13  1  0
 13 14  1  0
 14 15  2  0
 15 11  1  0
  7  8  2  0
 15 16  1  0
  5  4  1  0
 16 17  1  0
  8  9  1  0
 17 18  2  0
 20 19  1  0
 21 20  1  0
 19 21  1  0
  9 12  2  0
  4  1  2  0
 11 10  2  0
 17 19  1  0
  8  1  1  0
 10  7  1  0
  3 22  1  0
M  END
>  <ACTIVITY>  (16) 
828

$$$$

     RDKit          2D

 25 28  0  0  0  0  0  0  0  0999 V2000
    4.7812    5.2354    0.0000 N   0  0  0  0  0  0  0  0  0  0  0  0
    4.7812    4.4104    0.0000 S   0  0  0  0  0  0  0  0  0  0  0  0
    3.9562    4.4104    0.0000 O   0  0  0  0  0  0  0  0  0  0  0  0
    5.6062    4.4104    0.0000 O   0  0  0  0  0  0  0  0  0  0  0  0
    4.7812    3.5854    0.0000 C   0  0  0  0  0  0  0  0  0  0  0  0
    5.4957    3.1729    0.0000 C   0  0  0  0  0  0  0  0  0  0  0  0
    5.4957    2.3479    0.0000 C   0  0  0  0  0  0  0  0  0  0  0  0
    4.7812    1.9354    0.0000 C   0  0  0  0  0  0  0  0  0  0  0  0
    4.0668    2.3479    0.0000 C   0  0  0  0  0  0  0  0  0  0  0  0
    4.0668    3.1729    0.0000 C   0  0  0  0  0  0  0  0  0  0  0  0
    3.3523    1.9354    0.0000 C   0  0  0  0  0  0  0  0  0  0  0  0
    3.3523    1.1104    0.0000 C   0  0  0  0  0  0  0  0  0  0  0  0
    2.6378    0.6979    0.0000 C   0  0  0  0  0  0  0  0  0  0  0  0
    1.9233    1.1104    0.0000 C   0  0  0  0  0  0  0  0  0  0  0  0
    1.1387    0.8555    0.0000 C   0  0  0  0  0  0  0  0  0  0  0  0
    0.8838    0.0709    0.0000 N   0  0  0  0  0  0  0  0  0  0  0  0
    1.4358   -0.5422    0.0000 C   0  0  0  0  0  0  0  0  0  0  0  0
    2.2428   -0.3707    0.0000 O   0  0  0  0  0  0  0  0  0  0  0  0
    1.1809   -1.3268    0.0000 C   0  0  0  0  0  0  0  0  0  0  0  0
    1.3524   -2.1338    0.0000 C   0  0  0  0  0  0  0  0  0  0  0  0
    0.5678   -1.8789    0.0000 C   0  0  0  0  0  0  0  0  0  0  0  0
    0.6538    1.5229    0.0000 N   0  0  0  0  0  0  0  0  0  0  0  0
    1.1387    2.1904    0.0000 N   0  0  0  0  0  0  0  0  0  0  0  0
    1.9233    1.9354    0.0000 C   0  0  0  0  0  0  0  0  0  0  0  0
    2.6378    2.3479    0.0000 C   0  0  0  0  0  0  0  0  0  0  0  0
  1  2  1  0
  2  3  2  0
  2  4  2  0
  2  5  1  0
  5  6  2  0
  6  7  1  0
  7  8  2  0
  8  9  1  0
  9 10  2  0
  5 10  1  0
  9 11  1  0
 11 12  2  0
 12 13  1  0
 13 14  2  0
 14 15  1  0
 15 16  1  0
 16 17  1  0
 17 18  2  0
 17 19  1  0
 19 20  1  0
 20 21  1  0
 19 21  1  0
 15 22  2  0
 22 23  1  0
 23 24  1  0
 14 24  1  0
 24 25  2  0
 11 25  1  0
M  END
>  <ACTIVITY>  (17) 
481

$$$$

     RDKit          3D

 24 28  0  0  0  0  0  0  0  0999 V2000
    3.9660  -18.4379    0.0000 C   0  0  0  0  0  0  0  0  0  0  0  0
    3.9826  -19.2631    0.0000 C   0  0  0  0  0  0  0  0  0  0  0  0
    3.2793  -19.6880    0.0000 C   0  0  0  0  0  0  0  0  0  0  0  0
    3.2508  -18.0394    0.0000 C   0  0  0  0  0  0  0  0  0  0  0  0
    2.5421  -18.4602    0.0000 C   0  0  0  0  0  0  0  0  0  0  0  0
    2.5523  -19.2895    0.0000 C   0  0  0  0  0  0  0  0  0  0  0  0
    1.7667  -19.5555    0.0000 N   0  0  0  0  0  0  0  0  0  0  0  0
    1.2710  -18.8905    0.0000 C   0  0  0  0  0  0  0  0  0  0  0  0
    1.7503  -18.2137    0.0000 C   0  0  0  0  0  0  0  0  0  0  0  0
    4.6838  -17.2011    0.0000 C   0  0  0  0  0  0  0  0  0  0  0  0
    4.6825  -18.0265    0.0000 C   0  0  0  0  0  0  0  0  0  0  0  0
    5.3936  -18.4384    0.0000 C   0  0  0  0  0  0  0  0  0  0  0  0
    5.3917  -16.7895    0.0000 C   0  0  0  0  0  0  0  0  0  0  0  0
    6.1079  -17.1971    0.0000 C   0  0  0  0  0  0  0  0  0  0  0  0
    6.1085  -18.0265    0.0000 C   0  0  0  0  0  0  0  0  0  0  0  0
    6.8974  -18.2824    0.0000 N   0  0  0  0  0  0  0  0  0  0  0  0
    7.3845  -17.6109    0.0000 N   0  0  0  0  0  0  0  0  0  0  0  0
    6.8965  -16.9404    0.0000 C   0  0  0  0  0  0  0  0  0  0  0  0
    7.1503  -16.1577    0.0000 N   0  0  0  0  0  0  0  0  0  0  0  0
    7.9550  -15.9861    0.0000 C   0  0  0  0  0  0  0  0  0  0  0  0
    8.5059  -16.5971    0.0000 O   0  0  0  0  0  0  0  0  0  0  0  0
    8.2031  -15.2025    0.0000 C   0  0  0  0  0  0  0  0  0  0  0  0
    8.8143  -14.6515    0.0000 C   0  0  0  0  0  0  0  0  0  0  0  0
    8.0315  -14.3978    0.0000 C   0  0  0  0  0  0  0  0  0  0  0  0
 11 12  2  0
 12 15  1  0
  2  3  2  0
 14 13  1  0
 13 10  2  0
 14 15  2  0
  3  6  1  0
  1  2  1  0
  5  4  1  0
  6  7  1  0
  7  8  1  0
 15 16  1  0
 16 17  1  0
 17 18  2  0
 18 14  1  0
  8  9  2  0
 18 19  1  0
  9  5  1  0
 19 20  1  0
  4  1  2  0
 20 21  2  0
 23 22  1  0
 24 23  1  0
 22 24  1  0
  5  6  2  0
 10 11  1  0
 20 22  1  0
 11  1  1  0
M  END
>  <ACTIVITY>  (18) 
42

$$$$

     RDKit          2D

 22 25  0  0  0  0  0  0  0  0999 V2000
   13.8290  -18.7888    0.0000 C   0  0  0  0  0  0  0  0  0  0  0  0
   13.8683  -19.6153    0.0000 C   0  0  0  0  0  0  0  0  0  0  0  0
   14.6024  -19.9928    0.0000 C   0  0  0  0  0  0  0  0  0  0  0  0
   14.5199  -18.3418    0.0000 C   0  0  0  0  0  0  0  0  0  0  0  0
   15.2544  -18.7155    0.0000 C   0  0  0  0  0  0  0  0  0  0  0  0
   15.2950  -19.5410    0.0000 C   0  0  0  0  0  0  0  0  0  0  0  0
   16.0926  -19.7575    0.0000 C   0  0  0  0  0  0  0  0  0  0  0  0
   16.5450  -19.0658    0.0000 N   0  0  0  0  0  0  0  0  0  0  0  0
   16.0269  -18.4219    0.0000 N   0  0  0  0  0  0  0  0  0  0  0  0
   16.3865  -20.5284    0.0000 N   0  0  0  0  0  0  0  0  0  0  0  0
   17.2110  -20.4989    0.0000 C   0  0  0  0  0  0  0  0  0  0  0  0
   17.5977  -19.7701    0.0000 O   0  0  0  0  0  0  0  0  0  0  0  0
   13.0962  -18.4154    0.0000 C   0  0  0  0  0  0  0  0  0  0  0  0
   13.0570  -17.5902    0.0000 C   0  0  0  0  0  0  0  0  0  0  0  0
   12.3240  -17.2133    0.0000 C   0  0  0  0  0  0  0  0  0  0  0  0
   11.6296  -17.6604    0.0000 C   0  0  0  0  0  0  0  0  0  0  0  0
   11.6730  -18.4885    0.0000 C   0  0  0  0  0  0  0  0  0  0  0  0
   12.4064  -18.8617    0.0000 C   0  0  0  0  0  0  0  0  0  0  0  0
   17.6488  -21.1981    0.0000 C   0  0  0  0  0  0  0  0  0  0  0  0
   10.8953  -17.2844    0.0000 O   0  0  0  0  0  0  0  0  0  0  0  0
   17.6808  -22.0192    0.0000 C   0  0  0  0  0  0  0  0  0  0  0  0
   18.3800  -21.5814    0.0000 C   0  0  0  0  0  0  0  0  0  0  0  0
  5  6  2  0
 10 11  1  0
 11 12  2  0
  2  3  2  0
  3  6  1  0
 13 14  2  0
  1  2  1  0
 14 15  1  0
  5  4  1  0
 15 16  2  0
  6  7  1  0
 16 17  1  0
  7  8  2  0
 17 18  2  0
 18 13  1  0
  1 13  1  0
  8  9  1  0
 11 19  1  0
  9  5  1  0
 16 20  1  0
 21 19  1  0
 22 21  1  0
 19 22  1  0
  4  1  2  0
  7 10  1  0
M  END
>  <ACTIVITY>  (19) 
15

$$$$

     RDKit          2D

 21 24  0  0  0  0  0  0  0  0999 V2000
    2.2428   -2.5916    0.0000 O   0  0  0  0  0  0  0  0  0  0  0  0
    1.4358   -2.7631    0.0000 C   0  0  0  0  0  0  0  0  0  0  0  0
    0.8838   -2.1500    0.0000 N   0  0  0  0  0  0  0  0  0  0  0  0
    1.1387   -1.3654    0.0000 C   0  0  0  0  0  0  0  0  0  0  0  0
    0.6538   -0.6979    0.0000 N   0  0  0  0  0  0  0  0  0  0  0  0
    1.1387   -0.0305    0.0000 N   0  0  0  0  0  0  0  0  0  0  0  0
    1.9233   -0.2854    0.0000 C   0  0  0  0  0  0  0  0  0  0  0  0
    2.6378    0.1271    0.0000 C   0  0  0  0  0  0  0  0  0  0  0  0
    3.3523   -0.2854    0.0000 C   0  0  0  0  0  0  0  0  0  0  0  0
    3.3523   -1.1104    0.0000 C   0  0  0  0  0  0  0  0  0  0  0  0
    2.6378   -1.5229    0.0000 C   0  0  0  0  0  0  0  0  0  0  0  0
    1.9233   -1.1104    0.0000 C   0  0  0  0  0  0  0  0  0  0  0  0
    4.0668    0.1271    0.0000 C   0  0  0  0  0  0  0  0  0  0  0  0
    4.0668    0.9521    0.0000 C   0  0  0  0  0  0  0  0  0  0  0  0
    4.7812    1.3646    0.0000 C   0  0  0  0  0  0  0  0  0  0  0  0
    5.4957    0.9521    0.0000 C   0  0  0  0  0  0  0  0  0  0  0  0
    5.4957    0.1271    0.0000 C   0  0  0  0  0  0  0  0  0  0  0  0
    4.7812   -0.2854    0.0000 C   0  0  0  0  0  0  0  0  0  0  0  0
    1.1809   -3.5477    0.0000 C   0  0  0  0  0  0  0  0  0  0  0  0
    1.3524   -4.3547    0.0000 C   0  0  0  0  0  0  0  0  0  0  0  0
    0.5678   -4.0998    0.0000 C   0  0  0  0  0  0  0  0  0  0  0  0
  1  2  2  0
  2  3  1  0
  3  4  1  0
  4  5  2  0
  5  6  1  0
  6  7  1  0
  7  8  2  0
  8  9  1  0
  9 10  2  0
 10 11  1  0
 11 12  2  0
  4 12  1  0
  7 12  1  0
  9 13  1  0
 13 14  2  0
 14 15  1  0
 15 16  2  0
 16 17  1  0
 17 18  2  0
 13 18  1  0
  2 19  1  0
 19 20  1  0
 20 21  1  0
 19 21  1  0
M  END
>  <ACTIVITY>  (20) 
498

$$$$

     RDKit          2D

 23 26  0  0  0  0  0  0  0  0999 V2000
    6.2102    4.4104    0.0000 C   0  0  0  0  0  0  0  0  0  0  0  0
    6.2102    3.5854    0.0000 O   0  0  0  0  0  0  0  0  0  0  0  0
    5.4957    3.1729    0.0000 C   0  0  0  0  0  0  0  0  0  0  0  0
    5.4957    2.3479    0.0000 C   0  0  0  0  0  0  0  0  0  0  0  0
    4.7812    1.9354    0.0000 C   0  0  0  0  0  0  0  0  0  0  0  0
    4.0668    2.3479    0.0000 C   0  0  0  0  0  0  0  0  0  0  0  0
    4.0668    3.1729    0.0000 C   0  0  0  0  0  0  0  0  0  0  0  0
    4.7812    3.5854    0.0000 C   0  0  0  0  0  0  0  0  0  0  0  0
    3.3523    1.9354    0.0000 C   0  0  0  0  0  0  0  0  0  0  0  0
    3.3523    1.1104    0.0000 C   0  0  0  0  0  0  0  0  0  0  0  0
    2.6378    0.6979    0.0000 C   0  0  0  0  0  0  0  0  0  0  0  0
    1.9233    1.1104    0.0000 C   0  0  0  0  0  0  0  0  0  0  0  0
    1.1387    0.8555    0.0000 C   0  0  0  0  0  0  0  0  0  0  0  0
    0.8838    0.0709    0.0000 N   0  0  0  0  0  0  0  0  0  0  0  0
    1.4358   -0.5422    0.0000 C   0  0  0  0  0  0  0  0  0  0  0  0
    2.2428   -0.3707    0.0000 O   0  0  0  0  0  0  0  0  0  0  0  0
    1.1809   -1.3268    0.0000 C   0  0  0  0  0  0  0  0  0  0  0  0
    1.3524   -2.1338    0.0000 C   0  0  0  0  0  0  0  0  0  0  0  0
    0.5678   -1.8789    0.0000 C   0  0  0  0  0  0  0  0  0  0  0  0
    0.6538    1.5229    0.0000 N   0  0  0  0  0  0  0  0  0  0  0  0
    1.1387    2.1904    0.0000 N   0  0  0  0  0  0  0  0  0  0  0  0
    1.9233    1.9354    0.0000 C   0  0  0  0  0  0  0  0  0  0  0  0
    2.6378    2.3479    0.0000 N   0  0  0  0  0  0  0  0  0  0  0  0
  1  2  1  0
  2  3  1  0
  3  4  2  0
  4  5  1  0
  5  6  2  0
  6  7  1  0
  7  8  2  0
  3  8  1  0
  6  9  1  0
  9 10  2  0
 10 11  1  0
 11 12  2  0
 12 13  1  0
 13 14  1  0
 14 15  1  0
 15 16  2  0
 15 17  1  0
 17 18  1  0
 18 19  1  0
 17 19  1  0
 13 20  2  0
 20 21  1  0
 21 22  1  0
 12 22  1  0
 22 23  2  0
  9 23  1  0
M  END
>  <ACTIVITY>  (21) 
23000

$$$$

     RDKit          3D

 30 33  0  0  0  0  0  0  0  0999 V2000
   -4.1267   -9.8407    0.0000 C   0  0  0  0  0  0  0  0  0  0  0  0
   -4.1280  -10.6683    0.0000 C   0  0  0  0  0  0  0  0  0  0  0  0
   -3.4149  -11.0812    0.0000 N   0  0  0  0  0  0  0  0  0  0  0  0
   -3.4169   -9.4278    0.0000 C   0  0  0  0  0  0  0  0  0  0  0  0
   -2.6988   -9.8367    0.0000 C   0  0  0  0  0  0  0  0  0  0  0  0
   -2.6983  -10.6683    0.0000 C   0  0  0  0  0  0  0  0  0  0  0  0
   -1.9071  -10.9248    0.0000 N   0  0  0  0  0  0  0  0  0  0  0  0
   -1.4187  -10.2516    0.0000 N   0  0  0  0  0  0  0  0  0  0  0  0
   -1.9080   -9.5792    0.0000 C   0  0  0  0  0  0  0  0  0  0  0  0
   -1.6536   -8.7944    0.0000 N   0  0  0  0  0  0  0  0  0  0  0  0
   -0.8467   -8.6224    0.0000 C   0  0  0  0  0  0  0  0  0  0  0  0
   -0.2943   -9.2351    0.0000 O   0  0  0  0  0  0  0  0  0  0  0  0
   -4.8404  -11.0780    0.0000 C   0  0  0  0  0  0  0  0  0  0  0  0
   -5.5545  -10.6627    0.0000 C   0  0  0  0  0  0  0  0  0  0  0  0
   -6.2691  -11.0735    0.0000 C   0  0  0  0  0  0  0  0  0  0  0  0
   -6.2707  -11.8994    0.0000 C   0  0  0  0  0  0  0  0  0  0  0  0
   -5.5519  -12.3128    0.0000 C   0  0  0  0  0  0  0  0  0  0  0  0
   -4.8401  -11.8996    0.0000 C   0  0  0  0  0  0  0  0  0  0  0  0
   -0.5958   -7.8419    0.0000 C   0  0  0  0  0  0  0  0  0  0  0  0
    0.2107   -7.6679    0.0000 C   0  0  0  0  0  0  0  0  0  0  0  0
    0.4631   -6.8825    0.0000 C   0  0  0  0  0  0  0  0  0  0  0  0
    1.2695   -6.7083    0.0000 N   0  0  0  0  0  0  0  0  0  0  0  0
    1.8206   -7.3261    0.0000 C   0  0  0  0  0  0  0  0  0  0  0  0
    2.6239   -7.1548    0.0000 C   0  0  0  0  0  0  0  0  0  0  0  0
    2.8805   -6.3703    0.0000 N   0  0  0  0  0  0  0  0  0  0  0  0
    2.3274   -5.7569    0.0000 C   0  0  0  0  0  0  0  0  0  0  0  0
    1.5176   -5.9280    0.0000 C   0  0  0  0  0  0  0  0  0  0  0  0
    3.6876   -6.1993    0.0000 C   0  0  0  0  0  0  0  0  0  0  0  0
    4.2393   -6.8127    0.0000 C   0  0  0  0  0  0  0  0  0  0  0  0
   -5.5501  -13.1378    0.0000 O   0  0  0  0  0  0  0  0  0  0  0  0
 14 15  2  0
  5  4  1  0
 15 16  1  0
  6  7  1  0
 16 17  2  0
  7  8  1  0
 17 18  1  0
 18 13  2  0
  2 13  1  0
  8  9  2  0
 11 19  1  0
  9  5  1  0
 19 20  1  0
  4  1  2  0
 20 21  1  0
  9 10  1  0
 21 22  1  0
 22 23  1  0
  5  6  2  0
 10 11  1  0
 11 12  2  0
  2  3  2  0
 22 27  1  0
 23 24  1  0
 24 25  1  0
 25 26  1  0
 26 27  1  0
  3  6  1  0
 25 28  1  0
 13 14  1  0
 28 29  1  0
  1  2  1  0
 17 30  1  0
M  END
>  <ACTIVITY>  (22) 
21

$$$$

     RDKit          2D

 27 30  0  0  0  0  0  0  0  0999 V2000
    4.1864   -4.0457    0.0000 C   0  0  0  0  0  0  0  0  0  0  0  0
    4.4413   -3.2611    0.0000 N   0  0  0  0  0  0  0  0  0  0  0  0
    3.8893   -2.6480    0.0000 C   0  0  0  0  0  0  0  0  0  0  0  0
    4.1442   -1.8633    0.0000 C   0  0  0  0  0  0  0  0  0  0  0  0
    4.9512   -1.6918    0.0000 C   0  0  0  0  0  0  0  0  0  0  0  0
    5.5032   -2.3049    0.0000 C   0  0  0  0  0  0  0  0  0  0  0  0
    5.2483   -3.0895    0.0000 C   0  0  0  0  0  0  0  0  0  0  0  0
    5.2061   -0.9072    0.0000 C   0  0  0  0  0  0  0  0  0  0  0  0
    4.6541   -0.2941    0.0000 O   0  0  0  0  0  0  0  0  0  0  0  0
    6.0131   -0.7357    0.0000 N   0  0  0  0  0  0  0  0  0  0  0  0
    6.2680    0.0490    0.0000 C   0  0  0  0  0  0  0  0  0  0  0  0
    5.7831    0.7164    0.0000 N   0  0  0  0  0  0  0  0  0  0  0  0
    6.2680    1.3838    0.0000 N   0  0  0  0  0  0  0  0  0  0  0  0
    7.0527    1.1289    0.0000 C   0  0  0  0  0  0  0  0  0  0  0  0
    7.7671    1.5414    0.0000 N   0  0  0  0  0  0  0  0  0  0  0  0
    8.4816    1.1289    0.0000 C   0  0  0  0  0  0  0  0  0  0  0  0
    9.1961    1.5414    0.0000 C   0  0  0  0  0  0  0  0  0  0  0  0
    9.1961    2.3664    0.0000 C   0  0  0  0  0  0  0  0  0  0  0  0
    9.9106    2.7789    0.0000 C   0  0  0  0  0  0  0  0  0  0  0  0
   10.6250    2.3664    0.0000 C   0  0  0  0  0  0  0  0  0  0  0  0
   11.3395    2.7789    0.0000 O   0  0  0  0  0  0  0  0  0  0  0  0
   10.6250    1.5414    0.0000 C   0  0  0  0  0  0  0  0  0  0  0  0
    9.9106    1.1289    0.0000 C   0  0  0  0  0  0  0  0  0  0  0  0
    8.4816    0.3039    0.0000 C   0  0  0  0  0  0  0  0  0  0  0  0
    9.1961   -0.1086    0.0000 Br  0  0  0  0  0  0  0  0  0  0  0  0
    7.7671   -0.1086    0.0000 C   0  0  0  0  0  0  0  0  0  0  0  0
    7.0527    0.3039    0.0000 C   0  0  0  0  0  0  0  0  0  0  0  0
  1  2  1  0
  2  3  1  0
  3  4  1  0
  4  5  1  0
  5  6  1  0
  6  7  1  0
  2  7  1  0
  5  8  1  0
  8  9  2  0
  8 10  1  0
 10 11  1  0
 11 12  2  0
 12 13  1  0
 13 14  1  0
 14 15  2  0
 15 16  1  0
 16 17  1  0
 17 18  2  0
 18 19  1  0
 19 20  2  0
 20 21  1  0
 20 22  1  0
 22 23  2  0
 17 23  1  0
 16 24  2  0
 24 25  1  0
 24 26  1  0
 26 27  2  0
 11 27  1  0
 14 27  1  0
M  END
>  <ACTIVITY>  (23) 
1

$$$$

     RDKit          3D

 26 29  0  0  0  0  0  0  0  0999 V2000
    7.9787   -1.1171    0.0000 C   0  0  0  0  0  0  0  0  0  0  0  0
    7.9774   -1.9438    0.0000 C   0  0  0  0  0  0  0  0  0  0  0  0
    8.6896   -2.3563    0.0000 N   0  0  0  0  0  0  0  0  0  0  0  0
    8.6876   -0.7048    0.0000 C   0  0  0  0  0  0  0  0  0  0  0  0
    9.4050   -1.1131    0.0000 C   0  0  0  0  0  0  0  0  0  0  0  0
    9.4055   -1.9438    0.0000 C   0  0  0  0  0  0  0  0  0  0  0  0
   10.1958   -2.2001    0.0000 N   0  0  0  0  0  0  0  0  0  0  0  0
   10.6837   -1.5276    0.0000 N   0  0  0  0  0  0  0  0  0  0  0  0
   10.1949   -0.8560    0.0000 C   0  0  0  0  0  0  0  0  0  0  0  0
   10.4491   -0.0720    0.0000 N   0  0  0  0  0  0  0  0  0  0  0  0
   11.2551    0.0999    0.0000 C   0  0  0  0  0  0  0  0  0  0  0  0
   11.8069   -0.5122    0.0000 O   0  0  0  0  0  0  0  0  0  0  0  0
    7.2658   -2.3530    0.0000 C   0  0  0  0  0  0  0  0  0  0  0  0
    6.5524   -1.9382    0.0000 C   0  0  0  0  0  0  0  0  0  0  0  0
    5.8386   -2.3485    0.0000 C   0  0  0  0  0  0  0  0  0  0  0  0
    5.8370   -3.1735    0.0000 C   0  0  0  0  0  0  0  0  0  0  0  0
    6.5550   -3.5865    0.0000 C   0  0  0  0  0  0  0  0  0  0  0  0
    7.2660   -3.1737    0.0000 C   0  0  0  0  0  0  0  0  0  0  0  0
   11.5057    0.8795    0.0000 C   0  0  0  0  0  0  0  0  0  0  0  0
   12.3130    1.0496    0.0000 C   0  0  0  0  0  0  0  0  0  0  0  0
   12.5679    1.8295    0.0000 C   0  0  0  0  0  0  0  0  0  0  0  0
   12.0190    2.4447    0.0000 N   0  0  0  0  0  0  0  0  0  0  0  0
   11.2116    2.2746    0.0000 C   0  0  0  0  0  0  0  0  0  0  0  0
   10.9532    1.4892    0.0000 C   0  0  0  0  0  0  0  0  0  0  0  0
   12.2761    3.2277    0.0000 C   0  0  0  0  0  0  0  0  0  0  0  0
    5.1232   -3.5856    0.0000 O   0  0  0  0  0  0  0  0  0  0  0  0
  2  3  1  0
  3  6  2  0
 13 14  2  0
  1  2  2  0
 14 15  1  0
  5  4  2  0
 15 16  2  0
  6  7  1  0
 16 17  1  0
  7  8  1  0
 17 18  2  0
 18 13  1  0
  2 13  1  0
 19 20  1  0
  8  9  2  0
  9  5  1  0
  4  1  1  0
  9 10  1  0
  5  6  1  0
 10 11  1  0
 19 24  1  0
 20 21  1  0
 21 22  1  0
 22 23  1  0
 23 24  1  0
 11 19  1  0
 22 25  1  0
 11 12  2  0
 16 26  1  0
M  END
>  <ACTIVITY>  (24) 
12

$$$$

     RDKit          3D

 26 29  0  0  0  0  0  0  0  0999 V2000
   13.0333  -24.3206    0.0000 C   0  0  0  0  0  0  0  0  0  0  0  0
   13.0320  -25.1474    0.0000 C   0  0  0  0  0  0  0  0  0  0  0  0
   13.7442  -25.5598    0.0000 N   0  0  0  0  0  0  0  0  0  0  0  0
   13.7422  -23.9083    0.0000 C   0  0  0  0  0  0  0  0  0  0  0  0
   14.4596  -24.3167    0.0000 C   0  0  0  0  0  0  0  0  0  0  0  0
   14.4601  -25.1474    0.0000 C   0  0  0  0  0  0  0  0  0  0  0  0
   15.2504  -25.4035    0.0000 N   0  0  0  0  0  0  0  0  0  0  0  0
   15.7383  -24.7312    0.0000 N   0  0  0  0  0  0  0  0  0  0  0  0
   15.2495  -24.0594    0.0000 C   0  0  0  0  0  0  0  0  0  0  0  0
   15.5037  -23.2755    0.0000 N   0  0  0  0  0  0  0  0  0  0  0  0
   16.3097  -23.1037    0.0000 C   0  0  0  0  0  0  0  0  0  0  0  0
   16.8615  -23.7157    0.0000 O   0  0  0  0  0  0  0  0  0  0  0  0
   12.3204  -25.5566    0.0000 C   0  0  0  0  0  0  0  0  0  0  0  0
   11.6070  -25.1418    0.0000 C   0  0  0  0  0  0  0  0  0  0  0  0
   10.8932  -25.5521    0.0000 C   0  0  0  0  0  0  0  0  0  0  0  0
   10.8916  -26.3771    0.0000 C   0  0  0  0  0  0  0  0  0  0  0  0
   11.6096  -26.7900    0.0000 C   0  0  0  0  0  0  0  0  0  0  0  0
   12.3206  -26.3773    0.0000 C   0  0  0  0  0  0  0  0  0  0  0  0
   16.5603  -22.3241    0.0000 C   0  0  0  0  0  0  0  0  0  0  0  0
   17.3676  -22.1540    0.0000 C   0  0  0  0  0  0  0  0  0  0  0  0
   17.6225  -21.3740    0.0000 C   0  0  0  0  0  0  0  0  0  0  0  0
   17.0736  -20.7588    0.0000 N   0  0  0  0  0  0  0  0  0  0  0  0
   16.2662  -20.9290    0.0000 C   0  0  0  0  0  0  0  0  0  0  0  0
   16.0078  -21.7143    0.0000 C   0  0  0  0  0  0  0  0  0  0  0  0
   17.3307  -19.9759    0.0000 C   0  0  0  0  0  0  0  0  0  0  0  0
   12.3192  -23.9091    0.0000 Br  0  0  0  0  0  0  0  0  0  0  0  0
  2  3  1  0
  3  6  2  0
 13 14  2  0
  1  2  2  0
 14 15  1  0
  5  4  2  0
 15 16  2  0
  6  7  1  0
 16 17  1  0
  7  8  1  0
 17 18  2  0
 18 13  1  0
  2 13  1  0
 19 20  1  0
  8  9  2  0
  9  5  1  0
  4  1  1  0
  9 10  1  0
  5  6  1  0
 10 11  1  0
 19 24  1  0
 20 21  1  0
 21 22  1  0
 22 23  1  0
 23 24  1  0
 11 19  1  0
 22 25  1  0
 11 12  2  0
  1 26  1  0
M  END
>  <ACTIVITY>  (25) 
383

$$$$

     RDKit          3D

 23 26  0  0  0  0  0  0  0  0999 V2000
    4.8472  -23.1487    0.0000 C   0  0  0  0  0  0  0  0  0  0  0  0
    4.8459  -23.9763    0.0000 C   0  0  0  0  0  0  0  0  0  0  0  0
    5.5589  -24.3891    0.0000 N   0  0  0  0  0  0  0  0  0  0  0  0
    5.5569  -22.7359    0.0000 C   0  0  0  0  0  0  0  0  0  0  0  0
    6.2750  -23.1447    0.0000 C   0  0  0  0  0  0  0  0  0  0  0  0
    6.2756  -23.9763    0.0000 C   0  0  0  0  0  0  0  0  0  0  0  0
    7.0665  -24.2327    0.0000 N   0  0  0  0  0  0  0  0  0  0  0  0
    7.5549  -23.5596    0.0000 N   0  0  0  0  0  0  0  0  0  0  0  0
    7.0657  -22.8872    0.0000 C   0  0  0  0  0  0  0  0  0  0  0  0
    7.3201  -22.1026    0.0000 N   0  0  0  0  0  0  0  0  0  0  0  0
    8.1269  -21.9305    0.0000 C   0  0  0  0  0  0  0  0  0  0  0  0
    8.3813  -21.1457    0.0000 C   0  0  0  0  0  0  0  0  0  0  0  0
    8.6792  -22.5432    0.0000 O   0  0  0  0  0  0  0  0  0  0  0  0
    4.1337  -24.3859    0.0000 C   0  0  0  0  0  0  0  0  0  0  0  0
    3.4195  -23.9707    0.0000 C   0  0  0  0  0  0  0  0  0  0  0  0
    2.7050  -24.3814    0.0000 C   0  0  0  0  0  0  0  0  0  0  0  0
    2.7034  -25.2072    0.0000 C   0  0  0  0  0  0  0  0  0  0  0  0
    3.4223  -25.6205    0.0000 C   0  0  0  0  0  0  0  0  0  0  0  0
    4.1338  -25.2074    0.0000 C   0  0  0  0  0  0  0  0  0  0  0  0
    8.9884  -20.5925    0.0000 C   0  0  0  0  0  0  0  0  0  0  0  0
    8.2036  -20.3381    0.0000 C   0  0  0  0  0  0  0  0  0  0  0  0
    4.1349  -22.7389    0.0000 C   0  0  0  0  0  0  0  0  0  0  0  0
    3.4202  -22.3271    0.0000 N   0  0  0  0  0  0  0  0  0  0  0  0
 10 11  1  0
 11 12  1  0
  2  3  1  0
 11 13  2  0
  3  6  2  0
  1  2  2  0
 14 15  2  0
  5  4  2  0
 15 16  1  0
  6  7  1  0
 16 17  2  0
  7  8  1  0
 17 18  1  0
  8  9  2  0
 18 19  2  0
 19 14  1  0
  2 14  1  0
 20 12  1  0
 21 20  1  0
 12 21  1  0
  9  5  1  0
  4  1  1  0
  9 10  1  0
  5  6  1  0
 22 23  3  0
  1 22  1  0
M  END
>  <ACTIVITY>  (26) 
87

$$$$

     RDKit          3D

 22 25  0  0  0  0  0  0  0  0999 V2000
   -3.7413  -23.1853    0.0000 C   0  0  0  0  0  0  0  0  0  0  0  0
   -3.7426  -24.0129    0.0000 C   0  0  0  0  0  0  0  0  0  0  0  0
   -3.0296  -24.4258    0.0000 N   0  0  0  0  0  0  0  0  0  0  0  0
   -3.0316  -22.7726    0.0000 C   0  0  0  0  0  0  0  0  0  0  0  0
   -2.3136  -23.1814    0.0000 C   0  0  0  0  0  0  0  0  0  0  0  0
   -2.3130  -24.0129    0.0000 C   0  0  0  0  0  0  0  0  0  0  0  0
   -1.5220  -24.2694    0.0000 N   0  0  0  0  0  0  0  0  0  0  0  0
   -1.0336  -23.5963    0.0000 N   0  0  0  0  0  0  0  0  0  0  0  0
   -1.5228  -22.9240    0.0000 C   0  0  0  0  0  0  0  0  0  0  0  0
   -1.2684  -22.1392    0.0000 N   0  0  0  0  0  0  0  0  0  0  0  0
   -0.4616  -21.9672    0.0000 C   0  0  0  0  0  0  0  0  0  0  0  0
   -0.2072  -21.1825    0.0000 C   0  0  0  0  0  0  0  0  0  0  0  0
    0.0907  -22.5798    0.0000 O   0  0  0  0  0  0  0  0  0  0  0  0
   -4.4549  -24.4225    0.0000 C   0  0  0  0  0  0  0  0  0  0  0  0
   -5.1690  -24.0073    0.0000 C   0  0  0  0  0  0  0  0  0  0  0  0
   -5.8835  -24.4180    0.0000 C   0  0  0  0  0  0  0  0  0  0  0  0
   -5.8851  -25.2438    0.0000 C   0  0  0  0  0  0  0  0  0  0  0  0
   -5.1663  -25.6572    0.0000 C   0  0  0  0  0  0  0  0  0  0  0  0
   -4.4547  -25.2440    0.0000 C   0  0  0  0  0  0  0  0  0  0  0  0
    0.3998  -20.6291    0.0000 C   0  0  0  0  0  0  0  0  0  0  0  0
   -0.3849  -20.3748    0.0000 C   0  0  0  0  0  0  0  0  0  0  0  0
   -4.4561  -22.7735    0.0000 Cl  0  0  0  0  0  0  0  0  0  0  0  0
  5  6  1  0
 10 11  1  0
 11 12  1  0
  2  3  1  0
 11 13  2  0
  3  6  2  0
  1  2  2  0
 14 15  2  0
  5  4  2  0
 15 16  1  0
  6  7  1  0
 16 17  2  0
  7  8  1  0
 17 18  1  0
  8  9  2  0
 18 19  2  0
 19 14  1  0
  2 14  1  0
 20 12  1  0
 21 20  1  0
 12 21  1  0
  9  5  1  0
  4  1  1  0
  9 10  1  0
  1 22  1  0
M  END
>  <ACTIVITY>  (27) 
234

$$$$

     RDKit          3D

 27 31  0  0  0  0  0  0  0  0999 V2000
    4.8658  -15.4589    0.0000 C   0  0  0  0  0  0  0  0  0  0  0  0
    4.8644  -16.2865    0.0000 C   0  0  0  0  0  0  0  0  0  0  0  0
    5.5774  -16.6994    0.0000 N   0  0  0  0  0  0  0  0  0  0  0  0
    5.5755  -15.0462    0.0000 C   0  0  0  0  0  0  0  0  0  0  0  0
    6.2935  -15.4549    0.0000 C   0  0  0  0  0  0  0  0  0  0  0  0
    6.2941  -16.2865    0.0000 C   0  0  0  0  0  0  0  0  0  0  0  0
    7.0851  -16.5430    0.0000 N   0  0  0  0  0  0  0  0  0  0  0  0
    7.5735  -15.8698    0.0000 N   0  0  0  0  0  0  0  0  0  0  0  0
    7.0843  -15.1975    0.0000 C   0  0  0  0  0  0  0  0  0  0  0  0
    7.3387  -14.4127    0.0000 N   0  0  0  0  0  0  0  0  0  0  0  0
    8.1455  -14.2407    0.0000 C   0  0  0  0  0  0  0  0  0  0  0  0
    8.3999  -13.4560    0.0000 C   0  0  0  0  0  0  0  0  0  0  0  0
    8.6979  -14.8534    0.0000 O   0  0  0  0  0  0  0  0  0  0  0  0
    4.1521  -16.6961    0.0000 C   0  0  0  0  0  0  0  0  0  0  0  0
    3.4380  -16.2809    0.0000 C   0  0  0  0  0  0  0  0  0  0  0  0
    2.7235  -16.6916    0.0000 C   0  0  0  0  0  0  0  0  0  0  0  0
    2.7218  -17.5175    0.0000 C   0  0  0  0  0  0  0  0  0  0  0  0
    3.4407  -17.9308    0.0000 C   0  0  0  0  0  0  0  0  0  0  0  0
    4.1523  -17.5177    0.0000 C   0  0  0  0  0  0  0  0  0  0  0  0
    9.0070  -12.9026    0.0000 C   0  0  0  0  0  0  0  0  0  0  0  0
    8.2223  -12.6483    0.0000 C   0  0  0  0  0  0  0  0  0  0  0  0
    4.1509  -15.0471    0.0000 C   0  0  0  0  0  0  0  0  0  0  0  0
    4.1518  -14.2215    0.0000 C   0  0  0  0  0  0  0  0  0  0  0  0
    3.4378  -13.8097    0.0000 C   0  0  0  0  0  0  0  0  0  0  0  0
    2.7227  -14.2229    0.0000 C   0  0  0  0  0  0  0  0  0  0  0  0
    2.7261  -15.0520    0.0000 C   0  0  0  0  0  0  0  0  0  0  0  0
    3.4407  -15.4601    0.0000 C   0  0  0  0  0  0  0  0  0  0  0  0
 11 13  2  0
  3  6  2  0
  1  2  2  0
 14 15  2  0
  5  4  2  0
 15 16  1  0
  6  7  1  0
 16 17  2  0
  7  8  1  0
 17 18  1  0
  8  9  2  0
 18 19  2  0
 19 14  1  0
  2 14  1  0
 20 12  1  0
 21 20  1  0
 12 21  1  0
  9  5  1  0
  4  1  1  0
  9 10  1  0
  1 22  1  0
  5  6  1  0
 22 23  2  0
 10 11  1  0
 23 24  1  0
 24 25  2  0
 11 12  1  0
 25 26  1  0
  2  3  1  0
 26 27  2  0
 27 22  1  0
M  END
>  <ACTIVITY>  (28) 
415

$$$$

     RDKit          3D

 23 26  0  0  0  0  0  0  0  0999 V2000
   -2.9393  -14.9680    0.0000 C   0  0  0  0  0  0  0  0  0  0  0  0
   -2.9405  -15.7956    0.0000 C   0  0  0  0  0  0  0  0  0  0  0  0
   -2.2277  -16.2084    0.0000 N   0  0  0  0  0  0  0  0  0  0  0  0
   -2.2296  -14.5552    0.0000 C   0  0  0  0  0  0  0  0  0  0  0  0
   -1.5115  -14.9641    0.0000 C   0  0  0  0  0  0  0  0  0  0  0  0
   -1.5110  -15.7956    0.0000 C   0  0  0  0  0  0  0  0  0  0  0  0
   -0.7199  -16.0520    0.0000 N   0  0  0  0  0  0  0  0  0  0  0  0
   -0.2315  -15.3790    0.0000 N   0  0  0  0  0  0  0  0  0  0  0  0
   -0.7208  -14.7066    0.0000 C   0  0  0  0  0  0  0  0  0  0  0  0
   -0.4665  -13.9219    0.0000 N   0  0  0  0  0  0  0  0  0  0  0  0
    0.3404  -13.7499    0.0000 C   0  0  0  0  0  0  0  0  0  0  0  0
    0.5947  -12.9651    0.0000 C   0  0  0  0  0  0  0  0  0  0  0  0
    0.8928  -14.3625    0.0000 O   0  0  0  0  0  0  0  0  0  0  0  0
   -3.6528  -16.2052    0.0000 C   0  0  0  0  0  0  0  0  0  0  0  0
   -4.3669  -15.7900    0.0000 C   0  0  0  0  0  0  0  0  0  0  0  0
   -5.0815  -16.2007    0.0000 C   0  0  0  0  0  0  0  0  0  0  0  0
   -5.0832  -17.0265    0.0000 C   0  0  0  0  0  0  0  0  0  0  0  0
   -4.3643  -17.4399    0.0000 C   0  0  0  0  0  0  0  0  0  0  0  0
   -3.6527  -17.0268    0.0000 C   0  0  0  0  0  0  0  0  0  0  0  0
    1.2019  -12.4118    0.0000 C   0  0  0  0  0  0  0  0  0  0  0  0
    0.4171  -12.1574    0.0000 C   0  0  0  0  0  0  0  0  0  0  0  0
   -5.7976  -17.4389    0.0000 O   0  0  0  0  0  0  0  0  0  0  0  0
   -3.6540  -14.5561    0.0000 C   0  0  0  0  0  0  0  0  0  0  0  0
 10 11  1  0
 11 12  1  0
  2  3  1  0
 11 13  2  0
  3  6  2  0
  1  2  2  0
 14 15  2  0
  5  4  2  0
 15 16  1  0
  6  7  1  0
 16 17  2  0
  7  8  1  0
 17 18  1  0
  8  9  2  0
 18 19  2  0
 19 14  1  0
  2 14  1  0
 20 12  1  0
 21 20  1  0
 12 21  1  0
  9  5  1  0
  4  1  1  0
  9 10  1  0
 17 22  1  0
  5  6  1  0
  1 23  1  0
M  END
>  <ACTIVITY>  (29) 
6

$$$$

     RDKit          3D

 23 26  0  0  0  0  0  0  0  0999 V2000
   14.0453   -8.0660    0.0000 C   0  0  0  0  0  0  0  0  0  0  0  0
   14.0440   -8.8936    0.0000 C   0  0  0  0  0  0  0  0  0  0  0  0
   14.7570   -9.3064    0.0000 N   0  0  0  0  0  0  0  0  0  0  0  0
   14.7550   -7.6532    0.0000 C   0  0  0  0  0  0  0  0  0  0  0  0
   15.4731   -8.0621    0.0000 C   0  0  0  0  0  0  0  0  0  0  0  0
   15.4737   -8.8936    0.0000 C   0  0  0  0  0  0  0  0  0  0  0  0
   16.2646   -9.1500    0.0000 N   0  0  0  0  0  0  0  0  0  0  0  0
   16.7530   -8.4770    0.0000 N   0  0  0  0  0  0  0  0  0  0  0  0
   16.2637   -7.8046    0.0000 C   0  0  0  0  0  0  0  0  0  0  0  0
   16.5182   -7.0199    0.0000 N   0  0  0  0  0  0  0  0  0  0  0  0
   17.3249   -6.8479    0.0000 C   0  0  0  0  0  0  0  0  0  0  0  0
   17.5794   -6.0631    0.0000 C   0  0  0  0  0  0  0  0  0  0  0  0
   17.8773   -7.4605    0.0000 O   0  0  0  0  0  0  0  0  0  0  0  0
   13.3318   -9.3032    0.0000 C   0  0  0  0  0  0  0  0  0  0  0  0
   12.6176   -8.8880    0.0000 C   0  0  0  0  0  0  0  0  0  0  0  0
   11.9031   -9.2987    0.0000 C   0  0  0  0  0  0  0  0  0  0  0  0
   11.9015  -10.1245    0.0000 C   0  0  0  0  0  0  0  0  0  0  0  0
   12.6204  -10.5379    0.0000 C   0  0  0  0  0  0  0  0  0  0  0  0
   13.3319  -10.1248    0.0000 C   0  0  0  0  0  0  0  0  0  0  0  0
   18.1865   -5.5098    0.0000 C   0  0  0  0  0  0  0  0  0  0  0  0
   17.4017   -5.2554    0.0000 C   0  0  0  0  0  0  0  0  0  0  0  0
   11.1871  -10.5369    0.0000 O   0  0  0  0  0  0  0  0  0  0  0  0
   13.3306   -7.6541    0.0000 Cl  0  0  0  0  0  0  0  0  0  0  0  0
 10 11  1  0
 11 12  1  0
  2  3  1  0
 11 13  2  0
  3  6  2  0
  1  2  2  0
 14 15  2  0
  5  4  2  0
 15 16  1  0
  6  7  1  0
 16 17  2  0
  7  8  1  0
 17 18  1  0
  8  9  2  0
 18 19  2  0
 19 14  1  0
  2 14  1  0
 20 12  1  0
 21 20  1  0
 12 21  1  0
  9  5  1  0
  4  1  1  0
  9 10  1  0
 17 22  1  0
  5  6  1  0
  1 23  1  0
M  END
>  <ACTIVITY>  (30) 
1

$$$$

     RDKit          3D

 23 26  0  0  0  0  0  0  0  0999 V2000
   13.5691    0.3117    0.0000 C   0  0  0  0  0  0  0  0  0  0  0  0
   13.5677   -0.5159    0.0000 C   0  0  0  0  0  0  0  0  0  0  0  0
   14.2807   -0.9288    0.0000 N   0  0  0  0  0  0  0  0  0  0  0  0
   14.2787    0.7244    0.0000 C   0  0  0  0  0  0  0  0  0  0  0  0
   14.9968    0.3157    0.0000 C   0  0  0  0  0  0  0  0  0  0  0  0
   14.9973   -0.5159    0.0000 C   0  0  0  0  0  0  0  0  0  0  0  0
   15.7884   -0.7724    0.0000 N   0  0  0  0  0  0  0  0  0  0  0  0
   16.2768   -0.0992    0.0000 N   0  0  0  0  0  0  0  0  0  0  0  0
   15.7875    0.5731    0.0000 C   0  0  0  0  0  0  0  0  0  0  0  0
   16.0420    1.3579    0.0000 N   0  0  0  0  0  0  0  0  0  0  0  0
   16.8488    1.5299    0.0000 C   0  0  0  0  0  0  0  0  0  0  0  0
   17.1032    2.3146    0.0000 C   0  0  0  0  0  0  0  0  0  0  0  0
   17.4012    0.9172    0.0000 O   0  0  0  0  0  0  0  0  0  0  0  0
   12.8554   -0.9255    0.0000 C   0  0  0  0  0  0  0  0  0  0  0  0
   12.1413   -0.5103    0.0000 C   0  0  0  0  0  0  0  0  0  0  0  0
   11.4268   -0.9210    0.0000 C   0  0  0  0  0  0  0  0  0  0  0  0
   11.4252   -1.7468    0.0000 C   0  0  0  0  0  0  0  0  0  0  0  0
   12.1440   -2.1602    0.0000 C   0  0  0  0  0  0  0  0  0  0  0  0
   12.8556   -1.7470    0.0000 C   0  0  0  0  0  0  0  0  0  0  0  0
   17.7103    2.8680    0.0000 C   0  0  0  0  0  0  0  0  0  0  0  0
   16.9256    3.1223    0.0000 C   0  0  0  0  0  0  0  0  0  0  0  0
   13.5706   -2.1586    0.0000 O   0  0  0  0  0  0  0  0  0  0  0  0
   13.5717   -2.9836    0.0000 C   0  0  0  0  0  0  0  0  0  0  0  0
 10 11  1  0
 11 12  1  0
  2  3  1  0
 11 13  2  0
  3  6  2  0
  1  2  2  0
 14 15  2  0
  5  4  2  0
 15 16  1  0
  6  7  1  0
 16 17  2  0
  7  8  1  0
 17 18  1  0
  8  9  2  0
 18 19  2  0
 19 14  1  0
  2 14  1  0
 20 12  1  0
 21 20  1  0
 12 21  1  0
  9  5  1  0
  4  1  1  0
  9 10  1  0
 19 22  1  0
  5  6  1  0
 22 23  1  0
M  END
>  <ACTIVITY>  (31) 
1593

$$$$

     RDKit          3D

 22 25  0  0  0  0  0  0  0  0999 V2000
    3.9213   -0.1007    0.0000 C   0  0  0  0  0  0  0  0  0  0  0  0
    3.9201   -0.9283    0.0000 C   0  0  0  0  0  0  0  0  0  0  0  0
    4.6329   -1.3412    0.0000 N   0  0  0  0  0  0  0  0  0  0  0  0
    4.6309    0.3119    0.0000 C   0  0  0  0  0  0  0  0  0  0  0  0
    5.3490   -0.0968    0.0000 C   0  0  0  0  0  0  0  0  0  0  0  0
    5.3496   -0.9283    0.0000 C   0  0  0  0  0  0  0  0  0  0  0  0
    6.1406   -1.1848    0.0000 N   0  0  0  0  0  0  0  0  0  0  0  0
    6.6289   -0.5117    0.0000 N   0  0  0  0  0  0  0  0  0  0  0  0
    6.1397    0.1606    0.0000 C   0  0  0  0  0  0  0  0  0  0  0  0
    6.3940    0.9453    0.0000 N   0  0  0  0  0  0  0  0  0  0  0  0
    7.2009    1.1174    0.0000 C   0  0  0  0  0  0  0  0  0  0  0  0
    7.4552    1.9020    0.0000 C   0  0  0  0  0  0  0  0  0  0  0  0
    7.7532    0.5047    0.0000 O   0  0  0  0  0  0  0  0  0  0  0  0
    3.2078   -1.3379    0.0000 C   0  0  0  0  0  0  0  0  0  0  0  0
    2.4937   -0.9227    0.0000 C   0  0  0  0  0  0  0  0  0  0  0  0
    1.7792   -1.3334    0.0000 C   0  0  0  0  0  0  0  0  0  0  0  0
    1.7775   -2.1592    0.0000 C   0  0  0  0  0  0  0  0  0  0  0  0
    2.4964   -2.5725    0.0000 C   0  0  0  0  0  0  0  0  0  0  0  0
    3.2079   -2.1594    0.0000 C   0  0  0  0  0  0  0  0  0  0  0  0
    8.0623    2.4554    0.0000 C   0  0  0  0  0  0  0  0  0  0  0  0
    7.2775    2.7096    0.0000 C   0  0  0  0  0  0  0  0  0  0  0  0
    3.9228   -2.5710    0.0000 O   0  0  0  0  0  0  0  0  0  0  0  0
  5  6  1  0
 10 11  1  0
 11 12  1  0
  2  3  1  0
 11 13  2  0
  3  6  2  0
  1  2  2  0
 14 15  2  0
  5  4  2  0
 15 16  1  0
  6  7  1  0
 16 17  2  0
  7  8  1  0
 17 18  1  0
  8  9  2  0
 18 19  2  0
 19 14  1  0
  2 14  1  0
 20 12  1  0
 21 20  1  0
 12 21  1  0
  9  5  1  0
  4  1  1  0
  9 10  1  0
 19 22  1  0
M  END
>  <ACTIVITY>  (32) 
36

$$$$

     RDKit          3D

 23 26  0  0  0  0  0  0  0  0999 V2000
   -3.4709    0.1009    0.0000 C   0  0  0  0  0  0  0  0  0  0  0  0
   -3.4722   -0.7267    0.0000 C   0  0  0  0  0  0  0  0  0  0  0  0
   -2.7593   -1.1395    0.0000 N   0  0  0  0  0  0  0  0  0  0  0  0
   -2.7612    0.5137    0.0000 C   0  0  0  0  0  0  0  0  0  0  0  0
   -2.0431    0.1048    0.0000 C   0  0  0  0  0  0  0  0  0  0  0  0
   -2.0426   -0.7267    0.0000 C   0  0  0  0  0  0  0  0  0  0  0  0
   -1.2516   -0.9831    0.0000 N   0  0  0  0  0  0  0  0  0  0  0  0
   -0.7632   -0.3101    0.0000 N   0  0  0  0  0  0  0  0  0  0  0  0
   -1.2525    0.3623    0.0000 C   0  0  0  0  0  0  0  0  0  0  0  0
   -0.9981    1.1470    0.0000 N   0  0  0  0  0  0  0  0  0  0  0  0
   -0.1913    1.3190    0.0000 C   0  0  0  0  0  0  0  0  0  0  0  0
    0.0631    2.1038    0.0000 C   0  0  0  0  0  0  0  0  0  0  0  0
    0.3611    0.7064    0.0000 O   0  0  0  0  0  0  0  0  0  0  0  0
   -4.1844   -1.1363    0.0000 C   0  0  0  0  0  0  0  0  0  0  0  0
   -4.8986   -0.7211    0.0000 C   0  0  0  0  0  0  0  0  0  0  0  0
   -5.6131   -1.1318    0.0000 C   0  0  0  0  0  0  0  0  0  0  0  0
   -5.6148   -1.9576    0.0000 C   0  0  0  0  0  0  0  0  0  0  0  0
   -4.8959   -2.3710    0.0000 C   0  0  0  0  0  0  0  0  0  0  0  0
   -4.1843   -1.9579    0.0000 C   0  0  0  0  0  0  0  0  0  0  0  0
    0.6703    2.6571    0.0000 C   0  0  0  0  0  0  0  0  0  0  0  0
   -0.1145    2.9115    0.0000 C   0  0  0  0  0  0  0  0  0  0  0  0
   -4.8942   -3.1959    0.0000 O   0  0  0  0  0  0  0  0  0  0  0  0
   -5.6077   -3.6098    0.0000 C   0  0  0  0  0  0  0  0  0  0  0  0
 10 11  1  0
 11 12  1  0
  2  3  1  0
 11 13  2  0
  3  6  2  0
  1  2  2  0
 14 15  2  0
  5  4  2  0
 15 16  1  0
  6  7  1  0
 16 17  2  0
  7  8  1  0
 17 18  1  0
  8  9  2  0
 18 19  2  0
 19 14  1  0
  2 14  1  0
 20 12  1  0
 21 20  1  0
 12 21  1  0
  9  5  1  0
  4  1  1  0
  9 10  1  0
 18 22  1  0
  5  6  1  0
 22 23  1  0
M  END
>  <ACTIVITY>  (33) 
125

$$$$

     RDKit          3D

 23 26  0  0  0  0  0  0  0  0999 V2000
    5.6034  -23.6620    0.0000 C   0  0  0  0  0  0  0  0  0  0  0  0
    5.6021  -24.4895    0.0000 C   0  0  0  0  0  0  0  0  0  0  0  0
    6.3151  -24.9024    0.0000 N   0  0  0  0  0  0  0  0  0  0  0  0
    6.3131  -23.2492    0.0000 C   0  0  0  0  0  0  0  0  0  0  0  0
    7.0312  -23.6580    0.0000 C   0  0  0  0  0  0  0  0  0  0  0  0
    7.0318  -24.4895    0.0000 C   0  0  0  0  0  0  0  0  0  0  0  0
    7.8227  -24.7460    0.0000 N   0  0  0  0  0  0  0  0  0  0  0  0
    8.3111  -24.0730    0.0000 N   0  0  0  0  0  0  0  0  0  0  0  0
    7.8219  -23.4006    0.0000 C   0  0  0  0  0  0  0  0  0  0  0  0
    8.0763  -22.6159    0.0000 N   0  0  0  0  0  0  0  0  0  0  0  0
    8.8831  -22.4438    0.0000 C   0  0  0  0  0  0  0  0  0  0  0  0
    9.1375  -21.6591    0.0000 C   0  0  0  0  0  0  0  0  0  0  0  0
    9.4354  -23.0565    0.0000 O   0  0  0  0  0  0  0  0  0  0  0  0
    4.8899  -24.8991    0.0000 C   0  0  0  0  0  0  0  0  0  0  0  0
    4.1757  -24.4839    0.0000 C   0  0  0  0  0  0  0  0  0  0  0  0
    3.4612  -24.8947    0.0000 C   0  0  0  0  0  0  0  0  0  0  0  0
    3.4596  -25.7205    0.0000 C   0  0  0  0  0  0  0  0  0  0  0  0
    4.1785  -26.1339    0.0000 C   0  0  0  0  0  0  0  0  0  0  0  0
    4.8900  -25.7207    0.0000 C   0  0  0  0  0  0  0  0  0  0  0  0
    9.7446  -21.1058    0.0000 C   0  0  0  0  0  0  0  0  0  0  0  0
    8.9598  -20.8514    0.0000 C   0  0  0  0  0  0  0  0  0  0  0  0
    2.7452  -26.1329    0.0000 O   0  0  0  0  0  0  0  0  0  0  0  0
    4.1801  -26.9587    0.0000 O   0  0  0  0  0  0  0  0  0  0  0  0
 10 11  1  0
 11 12  1  0
  2  3  1  0
 11 13  2  0
  3  6  2  0
  1  2  2  0
 14 15  2  0
  5  4  2  0
 15 16  1  0
  6  7  1  0
 16 17  2  0
  7  8  1  0
 17 18  1  0
  8  9  2  0
 18 19  2  0
 19 14  1  0
  2 14  1  0
 20 12  1  0
 21 20  1  0
 12 21  1  0
  9  5  1  0
  4  1  1  0
  9 10  1  0
 17 22  1  0
  5  6  1  0
 18 23  1  0
M  END
>  <ACTIVITY>  (34) 
8

$$$$

     RDKit          2D

 21 24  0  0  0  0  0  0  0  0999 V2000
    8.7328   -9.5796    0.0000 C   0  0  0  0  0  0  0  0  0  0  0  0
    8.7719  -10.4056    0.0000 C   0  0  0  0  0  0  0  0  0  0  0  0
    9.5056  -10.7829    0.0000 C   0  0  0  0  0  0  0  0  0  0  0  0
    9.4232   -9.1327    0.0000 N   0  0  0  0  0  0  0  0  0  0  0  0
   10.1573   -9.5063    0.0000 C   0  0  0  0  0  0  0  0  0  0  0  0
   10.1979  -10.3313    0.0000 C   0  0  0  0  0  0  0  0  0  0  0  0
   10.9951  -10.5477    0.0000 C   0  0  0  0  0  0  0  0  0  0  0  0
   11.4472   -9.8564    0.0000 N   0  0  0  0  0  0  0  0  0  0  0  0
   10.9295   -9.2129    0.0000 N   0  0  0  0  0  0  0  0  0  0  0  0
   11.2889  -11.3182    0.0000 N   0  0  0  0  0  0  0  0  0  0  0  0
   12.1130  -11.2887    0.0000 C   0  0  0  0  0  0  0  0  0  0  0  0
   12.4993  -10.5603    0.0000 O   0  0  0  0  0  0  0  0  0  0  0  0
   12.5505  -11.9876    0.0000 C   0  0  0  0  0  0  0  0  0  0  0  0
    8.0002   -9.2063    0.0000 C   0  0  0  0  0  0  0  0  0  0  0  0
    7.9611   -8.3815    0.0000 C   0  0  0  0  0  0  0  0  0  0  0  0
    7.2285   -8.0048    0.0000 C   0  0  0  0  0  0  0  0  0  0  0  0
    6.5345   -8.4517    0.0000 C   0  0  0  0  0  0  0  0  0  0  0  0
    6.5778   -9.2795    0.0000 C   0  0  0  0  0  0  0  0  0  0  0  0
    7.3108   -9.6524    0.0000 C   0  0  0  0  0  0  0  0  0  0  0  0
   12.5824  -12.8082    0.0000 C   0  0  0  0  0  0  0  0  0  0  0  0
   13.2812  -12.3706    0.0000 C   0  0  0  0  0  0  0  0  0  0  0  0
  7 10  1  0
  5  6  2  0
 10 11  1  0
 11 12  2  0
  2  3  2  0
 11 13  1  0
  3  6  1  0
  1  2  1  0
 14 15  2  0
  5  4  1  0
 15 16  1  0
  6  7  1  0
 16 17  2  0
  7  8  2  0
 17 18  1  0
  8  9  1  0
 18 19  2  0
 19 14  1  0
  1 14  1  0
 20 13  1  0
 21 20  1  0
 13 21  1  0
  9  5  1  0
  4  1  2  0
M  END
>  <ACTIVITY>  (35) 
425

$$$$

     RDKit          3D

 25 28  0  0  0  0  0  0  0  0999 V2000
   -3.0313  -12.3160    0.0000 C   0  0  0  0  0  0  0  0  0  0  0  0
   -3.0326  -13.1437    0.0000 C   0  0  0  0  0  0  0  0  0  0  0  0
   -2.3196  -13.5566    0.0000 N   0  0  0  0  0  0  0  0  0  0  0  0
   -2.3216  -11.9032    0.0000 C   0  0  0  0  0  0  0  0  0  0  0  0
   -1.6033  -12.3121    0.0000 C   0  0  0  0  0  0  0  0  0  0  0  0
   -1.6028  -13.1437    0.0000 C   0  0  0  0  0  0  0  0  0  0  0  0
   -0.8117  -13.4002    0.0000 N   0  0  0  0  0  0  0  0  0  0  0  0
   -0.3233  -12.7270    0.0000 N   0  0  0  0  0  0  0  0  0  0  0  0
   -0.8126  -12.0546    0.0000 C   0  0  0  0  0  0  0  0  0  0  0  0
   -0.5582  -11.2698    0.0000 N   0  0  0  0  0  0  0  0  0  0  0  0
    0.2487  -11.0977    0.0000 C   0  0  0  0  0  0  0  0  0  0  0  0
    0.5032  -10.3128    0.0000 C   0  0  0  0  0  0  0  0  0  0  0  0
    0.8012  -11.7105    0.0000 O   0  0  0  0  0  0  0  0  0  0  0  0
    1.3101  -10.1408    0.0000 C   0  0  0  0  0  0  0  0  0  0  0  0
    1.5645   -9.3560    0.0000 C   0  0  0  0  0  0  0  0  0  0  0  0
   -3.7460  -11.9046    0.0000 C   0  0  0  0  0  0  0  0  0  0  0  0
   -3.7454  -11.0785    0.0000 C   0  0  0  0  0  0  0  0  0  0  0  0
   -4.4594  -10.6666    0.0000 C   0  0  0  0  0  0  0  0  0  0  0  0
   -5.1746  -11.0798    0.0000 C   0  0  0  0  0  0  0  0  0  0  0  0
   -4.4566  -12.3173    0.0000 C   0  0  0  0  0  0  0  0  0  0  0  0
   -5.1699  -11.9125    0.0000 C   0  0  0  0  0  0  0  0  0  0  0  0
   -5.8750  -12.3279    0.0000 C   0  0  0  0  0  0  0  0  0  0  0  0
   -5.8679  -13.1478    0.0000 C   0  0  0  0  0  0  0  0  0  0  0  0
   -5.1498  -13.5506    0.0000 C   0  0  0  0  0  0  0  0  0  0  0  0
   -4.4478  -13.1329    0.0000 C   0  0  0  0  0  0  0  0  0  0  0  0
 11 12  1  0
  2  3  2  0
 11 13  2  0
  3  6  1  0
 12 14  1  0
  1  2  1  0
 14 15  1  0
  5  4  1  0
  6  7  1  0
 16 17  2  0
  7  8  1  0
 17 18  1  0
  8  9  2  0
 18 19  2  0
 19 21  1  0
 20 16  1  0
  1 16  1  0
  9  5  1  0
  4  1  2  0
 20 21  2  0
  9 10  1  0
 21 22  1  0
  5  6  2  0
 22 23  2  0
 10 11  1  0
 23 24  1  0
 24 25  2  0
 25 20  1  0
M  END
>  <ACTIVITY>  (36) 
241

$$$$

     RDKit          3D

 25 28  0  0  0  0  0  0  0  0999 V2000
   15.9303   -6.2151    0.0000 C   0  0  0  0  0  0  0  0  0  0  0  0
   15.9290   -7.0426    0.0000 C   0  0  0  0  0  0  0  0  0  0  0  0
   16.6420   -7.4556    0.0000 N   0  0  0  0  0  0  0  0  0  0  0  0
   16.6401   -5.8023    0.0000 C   0  0  0  0  0  0  0  0  0  0  0  0
   17.3583   -6.2110    0.0000 C   0  0  0  0  0  0  0  0  0  0  0  0
   17.3588   -7.0426    0.0000 C   0  0  0  0  0  0  0  0  0  0  0  0
   18.1498   -7.2992    0.0000 N   0  0  0  0  0  0  0  0  0  0  0  0
   18.6382   -6.6261    0.0000 N   0  0  0  0  0  0  0  0  0  0  0  0
   18.1490   -5.9536    0.0000 C   0  0  0  0  0  0  0  0  0  0  0  0
   18.4034   -5.1689    0.0000 N   0  0  0  0  0  0  0  0  0  0  0  0
   19.2102   -4.9967    0.0000 C   0  0  0  0  0  0  0  0  0  0  0  0
   19.4647   -4.2120    0.0000 C   0  0  0  0  0  0  0  0  0  0  0  0
   19.7627   -5.6095    0.0000 O   0  0  0  0  0  0  0  0  0  0  0  0
   20.2715   -4.0399    0.0000 C   0  0  0  0  0  0  0  0  0  0  0  0
   20.5260   -3.2551    0.0000 C   0  0  0  0  0  0  0  0  0  0  0  0
   15.2156   -5.8037    0.0000 C   0  0  0  0  0  0  0  0  0  0  0  0
   15.2163   -4.9776    0.0000 C   0  0  0  0  0  0  0  0  0  0  0  0
   14.5023   -4.5657    0.0000 C   0  0  0  0  0  0  0  0  0  0  0  0
   14.5051   -6.2163    0.0000 C   0  0  0  0  0  0  0  0  0  0  0  0
   13.7906   -5.8082    0.0000 C   0  0  0  0  0  0  0  0  0  0  0  0
   13.7901   -4.9820    0.0000 C   0  0  0  0  0  0  0  0  0  0  0  0
   13.0755   -4.5710    0.0000 C   0  0  0  0  0  0  0  0  0  0  0  0
   12.3608   -4.9852    0.0000 C   0  0  0  0  0  0  0  0  0  0  0  0
   12.3653   -5.8146    0.0000 C   0  0  0  0  0  0  0  0  0  0  0  0
   13.0805   -6.2218    0.0000 C   0  0  0  0  0  0  0  0  0  0  0  0
 11 12  1  0
  2  3  2  0
 11 13  2  0
  3  6  1  0
 12 14  1  0
  1  2  1  0
 14 15  1  0
  5  4  1  0
  6  7  1  0
 16 17  2  0
  7  8  1  0
 17 18  1  0
 18 21  2  0
  8  9  2  0
 20 19  2  0
 19 16  1  0
  1 16  1  0
  9  5  1  0
  4  1  2  0
 20 21  1  0
  9 10  1  0
 21 22  1  0
  5  6  2  0
 22 23  2  0
 10 11  1  0
 23 24  1  0
 24 25  2  0
 25 20  1  0
M  END
>  <ACTIVITY>  (37) 
169

$$$$

     RDKit          3D

 27 30  0  0  0  0  0  0  0  0999 V2000
    7.0334   -6.1183    0.0000 C   0  0  0  0  0  0  0  0  0  0  0  0
    7.0321   -6.9458    0.0000 C   0  0  0  0  0  0  0  0  0  0  0  0
    7.7450   -7.3587    0.0000 N   0  0  0  0  0  0  0  0  0  0  0  0
    7.7431   -5.7055    0.0000 C   0  0  0  0  0  0  0  0  0  0  0  0
    8.4612   -6.1143    0.0000 C   0  0  0  0  0  0  0  0  0  0  0  0
    8.4617   -6.9458    0.0000 C   0  0  0  0  0  0  0  0  0  0  0  0
    9.2527   -7.2023    0.0000 N   0  0  0  0  0  0  0  0  0  0  0  0
    9.7411   -6.5293    0.0000 N   0  0  0  0  0  0  0  0  0  0  0  0
    9.2518   -5.8569    0.0000 C   0  0  0  0  0  0  0  0  0  0  0  0
    9.5062   -5.0722    0.0000 N   0  0  0  0  0  0  0  0  0  0  0  0
   10.3130   -4.9001    0.0000 C   0  0  0  0  0  0  0  0  0  0  0  0
   10.5674   -4.1154    0.0000 C   0  0  0  0  0  0  0  0  0  0  0  0
   10.8654   -5.5128    0.0000 O   0  0  0  0  0  0  0  0  0  0  0  0
   11.3742   -3.9434    0.0000 C   0  0  0  0  0  0  0  0  0  0  0  0
   11.6287   -3.1586    0.0000 C   0  0  0  0  0  0  0  0  0  0  0  0
    6.3188   -5.7070    0.0000 C   0  0  0  0  0  0  0  0  0  0  0  0
    6.3194   -4.8809    0.0000 C   0  0  0  0  0  0  0  0  0  0  0  0
    5.6055   -4.4691    0.0000 C   0  0  0  0  0  0  0  0  0  0  0  0
    4.8904   -4.8823    0.0000 C   0  0  0  0  0  0  0  0  0  0  0  0
    4.8938   -5.7115    0.0000 C   0  0  0  0  0  0  0  0  0  0  0  0
    5.6083   -6.1196    0.0000 C   0  0  0  0  0  0  0  0  0  0  0  0
    4.1765   -4.4740    0.0000 C   0  0  0  0  0  0  0  0  0  0  0  0
    4.1761   -3.6479    0.0000 C   0  0  0  0  0  0  0  0  0  0  0  0
    3.4616   -3.2371    0.0000 C   0  0  0  0  0  0  0  0  0  0  0  0
    2.7471   -3.6511    0.0000 C   0  0  0  0  0  0  0  0  0  0  0  0
    2.7516   -4.4803    0.0000 C   0  0  0  0  0  0  0  0  0  0  0  0
    3.4666   -4.8874    0.0000 C   0  0  0  0  0  0  0  0  0  0  0  0
 11 13  2  0
  3  6  2  0
 12 14  1  0
  1  2  2  0
 14 15  1  0
  5  4  2  0
  6  7  1  0
 16 17  2  0
  7  8  1  0
 17 18  1  0
  8  9  2  0
 18 19  2  0
  9  5  1  0
 19 20  1  0
  4  1  1  0
 20 21  2  0
 21 16  1  0
  1 16  1  0
  9 10  1  0
  5  6  1  0
 22 23  2  0
 10 11  1  0
 23 24  1  0
 24 25  2  0
 11 12  1  0
 25 26  1  0
  2  3  1  0
 26 27  2  0
 27 22  1  0
 19 22  1  0
M  END
>  <ACTIVITY>  (38) 
851

$$$$

     RDKit          3D

 21 23  0  0  0  0  0  0  0  0999 V2000
   -3.3291   -5.7705    0.0000 C   0  0  0  0  0  0  0  0  0  0  0  0
   -3.3304   -6.5981    0.0000 C   0  0  0  0  0  0  0  0  0  0  0  0
   -2.6174   -7.0110    0.0000 N   0  0  0  0  0  0  0  0  0  0  0  0
   -2.6194   -5.3576    0.0000 C   0  0  0  0  0  0  0  0  0  0  0  0
   -1.9013   -5.7665    0.0000 C   0  0  0  0  0  0  0  0  0  0  0  0
   -1.9007   -6.5981    0.0000 C   0  0  0  0  0  0  0  0  0  0  0  0
   -1.1096   -6.8545    0.0000 N   0  0  0  0  0  0  0  0  0  0  0  0
   -0.6212   -6.1814    0.0000 N   0  0  0  0  0  0  0  0  0  0  0  0
   -1.1105   -5.5090    0.0000 C   0  0  0  0  0  0  0  0  0  0  0  0
   -0.8560   -4.7242    0.0000 N   0  0  0  0  0  0  0  0  0  0  0  0
   -0.0492   -4.5522    0.0000 C   0  0  0  0  0  0  0  0  0  0  0  0
    0.2053   -3.7673    0.0000 C   0  0  0  0  0  0  0  0  0  0  0  0
    0.5033   -5.1649    0.0000 O   0  0  0  0  0  0  0  0  0  0  0  0
    1.0121   -3.5953    0.0000 C   0  0  0  0  0  0  0  0  0  0  0  0
    1.2666   -2.8105    0.0000 C   0  0  0  0  0  0  0  0  0  0  0  0
   -4.0438   -5.3591    0.0000 C   0  0  0  0  0  0  0  0  0  0  0  0
   -4.0431   -4.5329    0.0000 C   0  0  0  0  0  0  0  0  0  0  0  0
   -4.7571   -4.1211    0.0000 C   0  0  0  0  0  0  0  0  0  0  0  0
   -5.4723   -4.5343    0.0000 N   0  0  0  0  0  0  0  0  0  0  0  0
   -5.4688   -5.3636    0.0000 C   0  0  0  0  0  0  0  0  0  0  0  0
   -4.7543   -5.7717    0.0000 C   0  0  0  0  0  0  0  0  0  0  0  0
  9 10  1  0
  5  6  2  0
 10 11  1  0
 11 12  1  0
  2  3  2  0
 11 13  2  0
  3  6  1  0
 12 14  1  0
  1  2  1  0
 14 15  1  0
  5  4  1  0
  6  7  1  0
 16 17  2  0
  7  8  1  0
 17 18  1  0
  8  9  2  0
 18 19  2  0
  9  5  1  0
 19 20  1  0
  4  1  2  0
 20 21  2  0
 21 16  1  0
  1 16  1  0
M  END
>  <ACTIVITY>  (39) 
443

$$$$

     RDKit          3D

 21 23  0  0  0  0  0  0  0  0999 V2000
   13.7208    0.3805    0.0000 C   0  0  0  0  0  0  0  0  0  0  0  0
   13.7195   -0.4471    0.0000 C   0  0  0  0  0  0  0  0  0  0  0  0
   14.4325   -0.8601    0.0000 N   0  0  0  0  0  0  0  0  0  0  0  0
   14.4305    0.7932    0.0000 C   0  0  0  0  0  0  0  0  0  0  0  0
   15.1486    0.3844    0.0000 C   0  0  0  0  0  0  0  0  0  0  0  0
   15.1491   -0.4471    0.0000 C   0  0  0  0  0  0  0  0  0  0  0  0
   15.9402   -0.7037    0.0000 N   0  0  0  0  0  0  0  0  0  0  0  0
   16.4286   -0.0305    0.0000 N   0  0  0  0  0  0  0  0  0  0  0  0
   15.9393    0.6418    0.0000 C   0  0  0  0  0  0  0  0  0  0  0  0
   16.1938    1.4267    0.0000 N   0  0  0  0  0  0  0  0  0  0  0  0
   17.0006    1.5987    0.0000 C   0  0  0  0  0  0  0  0  0  0  0  0
   17.2550    2.3834    0.0000 C   0  0  0  0  0  0  0  0  0  0  0  0
   17.5530    0.9860    0.0000 O   0  0  0  0  0  0  0  0  0  0  0  0
   18.0619    2.5556    0.0000 C   0  0  0  0  0  0  0  0  0  0  0  0
   18.3163    3.3403    0.0000 C   0  0  0  0  0  0  0  0  0  0  0  0
   13.0061    0.7918    0.0000 C   0  0  0  0  0  0  0  0  0  0  0  0
   13.0068    1.6179    0.0000 C   0  0  0  0  0  0  0  0  0  0  0  0
   12.2928    2.0297    0.0000 C   0  0  0  0  0  0  0  0  0  0  0  0
   11.5777    1.6165    0.0000 C   0  0  0  0  0  0  0  0  0  0  0  0
   11.5811    0.7874    0.0000 N   0  0  0  0  0  0  0  0  0  0  0  0
   12.2956    0.3793    0.0000 C   0  0  0  0  0  0  0  0  0  0  0  0
  9 10  1  0
  5  6  2  0
 10 11  1  0
 11 12  1  0
  2  3  2  0
 11 13  2  0
  3  6  1  0
 12 14  1  0
  1  2  1  0
 14 15  1  0
  5  4  1  0
  6  7  1  0
 16 17  2  0
  7  8  1  0
 17 18  1  0
  8  9  2  0
 18 19  2  0
  9  5  1  0
 19 20  1  0
  4  1  2  0
 20 21  2  0
 21 16  1  0
  1 16  1  0
M  END
>  <ACTIVITY>  (40) 
11

$$$$

     RDKit          3D

 22 24  0  0  0  0  0  0  0  0999 V2000
    5.5297    0.5179    0.0000 C   0  0  0  0  0  0  0  0  0  0  0  0
    5.5285   -0.3096    0.0000 C   0  0  0  0  0  0  0  0  0  0  0  0
    6.2413   -0.7225    0.0000 N   0  0  0  0  0  0  0  0  0  0  0  0
    6.2393    0.9306    0.0000 C   0  0  0  0  0  0  0  0  0  0  0  0
    6.9574    0.5219    0.0000 C   0  0  0  0  0  0  0  0  0  0  0  0
    6.9579   -0.3096    0.0000 C   0  0  0  0  0  0  0  0  0  0  0  0
    7.7489   -0.5661    0.0000 N   0  0  0  0  0  0  0  0  0  0  0  0
    8.2373    0.1070    0.0000 N   0  0  0  0  0  0  0  0  0  0  0  0
    7.7481    0.7792    0.0000 C   0  0  0  0  0  0  0  0  0  0  0  0
    8.0023    1.5640    0.0000 N   0  0  0  0  0  0  0  0  0  0  0  0
    8.8092    1.7360    0.0000 C   0  0  0  0  0  0  0  0  0  0  0  0
    9.0635    2.5206    0.0000 C   0  0  0  0  0  0  0  0  0  0  0  0
    9.3615    1.1234    0.0000 O   0  0  0  0  0  0  0  0  0  0  0  0
    9.8703    2.6927    0.0000 C   0  0  0  0  0  0  0  0  0  0  0  0
   10.1246    3.4774    0.0000 C   0  0  0  0  0  0  0  0  0  0  0  0
    4.8151    0.9291    0.0000 C   0  0  0  0  0  0  0  0  0  0  0  0
    4.8158    1.7551    0.0000 C   0  0  0  0  0  0  0  0  0  0  0  0
    4.1020    2.1669    0.0000 C   0  0  0  0  0  0  0  0  0  0  0  0
    3.3870    1.7538    0.0000 C   0  0  0  0  0  0  0  0  0  0  0  0
    3.3903    0.9247    0.0000 C   0  0  0  0  0  0  0  0  0  0  0  0
    4.1047    0.5167    0.0000 C   0  0  0  0  0  0  0  0  0  0  0  0
    4.1077   -0.3082    0.0000 Cl  0  0  0  0  0  0  0  0  0  0  0  0
  5  6  2  0
 10 11  1  0
 11 12  1  0
  2  3  2  0
 11 13  2  0
  3  6  1  0
 12 14  1  0
  1  2  1  0
 14 15  1  0
  5  4  1  0
  6  7  1  0
 16 17  2  0
  7  8  1  0
 17 18  1  0
  8  9  2  0
 18 19  2  0
  9  5  1  0
 19 20  1  0
  4  1  2  0
 20 21  2  0
 21 16  1  0
  1 16  1  0
  9 10  1  0
 21 22  1  0
M  END
>  <ACTIVITY>  (41) 
27

$$$$

     RDKit          3D

 23 25  0  0  0  0  0  0  0  0999 V2000
   -2.6505    0.1650    0.0000 C   0  0  0  0  0  0  0  0  0  0  0  0
   -2.6517   -0.6625    0.0000 C   0  0  0  0  0  0  0  0  0  0  0  0
   -1.9389   -1.0753    0.0000 N   0  0  0  0  0  0  0  0  0  0  0  0
   -1.9408    0.5778    0.0000 C   0  0  0  0  0  0  0  0  0  0  0  0
   -1.2227    0.1691    0.0000 C   0  0  0  0  0  0  0  0  0  0  0  0
   -1.2222   -0.6625    0.0000 C   0  0  0  0  0  0  0  0  0  0  0  0
   -0.4312   -0.9189    0.0000 N   0  0  0  0  0  0  0  0  0  0  0  0
    0.0572   -0.2459    0.0000 N   0  0  0  0  0  0  0  0  0  0  0  0
   -0.4320    0.4264    0.0000 C   0  0  0  0  0  0  0  0  0  0  0  0
   -0.1777    1.2111    0.0000 N   0  0  0  0  0  0  0  0  0  0  0  0
    0.6291    1.3832    0.0000 C   0  0  0  0  0  0  0  0  0  0  0  0
    0.8834    2.1678    0.0000 C   0  0  0  0  0  0  0  0  0  0  0  0
    1.1815    0.7705    0.0000 O   0  0  0  0  0  0  0  0  0  0  0  0
    1.6903    2.3399    0.0000 C   0  0  0  0  0  0  0  0  0  0  0  0
    1.9446    3.1246    0.0000 C   0  0  0  0  0  0  0  0  0  0  0  0
   -3.3651    0.5763    0.0000 C   0  0  0  0  0  0  0  0  0  0  0  0
   -3.3644    1.4023    0.0000 C   0  0  0  0  0  0  0  0  0  0  0  0
   -4.0782    1.8141    0.0000 C   0  0  0  0  0  0  0  0  0  0  0  0
   -4.7932    1.4010    0.0000 C   0  0  0  0  0  0  0  0  0  0  0  0
   -4.7899    0.5718    0.0000 C   0  0  0  0  0  0  0  0  0  0  0  0
   -4.0755    0.1638    0.0000 C   0  0  0  0  0  0  0  0  0  0  0  0
   -5.5026    0.1563    0.0000 F   0  0  0  0  0  0  0  0  0  0  0  0
   -4.0725   -0.6611    0.0000 F   0  0  0  0  0  0  0  0  0  0  0  0
 10 11  1  0
 11 12  1  0
  2  3  2  0
 11 13  2  0
  3  6  1  0
 12 14  1  0
  1  2  1  0
 14 15  1  0
  5  4  1  0
  6  7  1  0
 16 17  2  0
  7  8  1  0
 17 18  1  0
  8  9  2  0
 18 19  2  0
  9  5  1  0
 19 20  1  0
  4  1  2  0
 20 21  2  0
 21 16  1  0
  1 16  1  0
  9 10  1  0
 20 22  1  0
  5  6  2  0
 21 23  1  0
M  END
>  <ACTIVITY>  (42) 
7

$$$$

     RDKit          3D

 22 24  0  0  0  0  0  0  0  0999 V2000
   13.5649  -25.4142    0.0000 C   0  0  0  0  0  0  0  0  0  0  0  0
   13.5636  -26.2418    0.0000 C   0  0  0  0  0  0  0  0  0  0  0  0
   14.2766  -26.6547    0.0000 N   0  0  0  0  0  0  0  0  0  0  0  0
   14.2746  -25.0015    0.0000 C   0  0  0  0  0  0  0  0  0  0  0  0
   14.9928  -25.4102    0.0000 C   0  0  0  0  0  0  0  0  0  0  0  0
   14.9934  -26.2418    0.0000 C   0  0  0  0  0  0  0  0  0  0  0  0
   15.7844  -26.4983    0.0000 N   0  0  0  0  0  0  0  0  0  0  0  0
   16.2728  -25.8251    0.0000 N   0  0  0  0  0  0  0  0  0  0  0  0
   15.7835  -25.1528    0.0000 C   0  0  0  0  0  0  0  0  0  0  0  0
   16.0379  -24.3680    0.0000 N   0  0  0  0  0  0  0  0  0  0  0  0
   16.8447  -24.1959    0.0000 C   0  0  0  0  0  0  0  0  0  0  0  0
   17.0992  -23.4112    0.0000 C   0  0  0  0  0  0  0  0  0  0  0  0
   17.3972  -24.8086    0.0000 O   0  0  0  0  0  0  0  0  0  0  0  0
   17.9060  -23.2391    0.0000 C   0  0  0  0  0  0  0  0  0  0  0  0
   18.1604  -22.4543    0.0000 C   0  0  0  0  0  0  0  0  0  0  0  0
   12.8503  -25.0029    0.0000 C   0  0  0  0  0  0  0  0  0  0  0  0
   12.8509  -24.1768    0.0000 C   0  0  0  0  0  0  0  0  0  0  0  0
   12.1369  -23.7650    0.0000 C   0  0  0  0  0  0  0  0  0  0  0  0
   11.4218  -24.1781    0.0000 C   0  0  0  0  0  0  0  0  0  0  0  0
   11.4252  -25.0073    0.0000 C   0  0  0  0  0  0  0  0  0  0  0  0
   12.1398  -25.4154    0.0000 C   0  0  0  0  0  0  0  0  0  0  0  0
   10.7125  -25.4230    0.0000 F   0  0  0  0  0  0  0  0  0  0  0  0
  5  6  2  0
 10 11  1  0
 11 12  1  0
  2  3  2  0
 11 13  2  0
  3  6  1  0
 12 14  1  0
  1  2  1  0
 14 15  1  0
  5  4  1  0
  6  7  1  0
 16 17  2  0
  7  8  1  0
 17 18  1  0
  8  9  2  0
 18 19  2  0
  9  5  1  0
 19 20  1  0
  4  1  2  0
 20 21  2  0
 21 16  1  0
  1 16  1  0
  9 10  1  0
 20 22  1  0
M  END
>  <ACTIVITY>  (43) 
20

$$$$

     RDKit          3D

 22 24  0  0  0  0  0  0  0  0999 V2000
    3.8069  -25.2110    0.0000 C   0  0  0  0  0  0  0  0  0  0  0  0
    3.8056  -26.0386    0.0000 C   0  0  0  0  0  0  0  0  0  0  0  0
    4.5186  -26.4514    0.0000 N   0  0  0  0  0  0  0  0  0  0  0  0
    4.5166  -24.7982    0.0000 C   0  0  0  0  0  0  0  0  0  0  0  0
    5.2346  -25.2071    0.0000 C   0  0  0  0  0  0  0  0  0  0  0  0
    5.2352  -26.0386    0.0000 C   0  0  0  0  0  0  0  0  0  0  0  0
    6.0262  -26.2950    0.0000 N   0  0  0  0  0  0  0  0  0  0  0  0
    6.5146  -25.6220    0.0000 N   0  0  0  0  0  0  0  0  0  0  0  0
    6.0254  -24.9496    0.0000 C   0  0  0  0  0  0  0  0  0  0  0  0
    6.2798  -24.1649    0.0000 N   0  0  0  0  0  0  0  0  0  0  0  0
    7.0866  -23.9929    0.0000 C   0  0  0  0  0  0  0  0  0  0  0  0
    7.3410  -23.2081    0.0000 C   0  0  0  0  0  0  0  0  0  0  0  0
    7.6389  -24.6055    0.0000 O   0  0  0  0  0  0  0  0  0  0  0  0
    8.1478  -23.0361    0.0000 C   0  0  0  0  0  0  0  0  0  0  0  0
    8.4022  -22.2514    0.0000 C   0  0  0  0  0  0  0  0  0  0  0  0
    3.0923  -24.7997    0.0000 C   0  0  0  0  0  0  0  0  0  0  0  0
    3.0930  -23.9736    0.0000 C   0  0  0  0  0  0  0  0  0  0  0  0
    2.3790  -23.5618    0.0000 C   0  0  0  0  0  0  0  0  0  0  0  0
    1.6640  -23.9750    0.0000 C   0  0  0  0  0  0  0  0  0  0  0  0
    1.6674  -24.8042    0.0000 C   0  0  0  0  0  0  0  0  0  0  0  0
    2.3819  -25.2123    0.0000 C   0  0  0  0  0  0  0  0  0  0  0  0
    2.3847  -26.0372    0.0000 F   0  0  0  0  0  0  0  0  0  0  0  0
  5  6  2  0
 10 11  1  0
 11 12  1  0
  2  3  2  0
 11 13  2  0
  3  6  1  0
 12 14  1  0
  1  2  1  0
 14 15  1  0
  5  4  1  0
  6  7  1  0
 16 17  2  0
  7  8  1  0
 17 18  1  0
  8  9  2  0
 18 19  2  0
  9  5  1  0
 19 20  1  0
  4  1  2  0
 20 21  2  0
 21 16  1  0
  1 16  1  0
  9 10  1  0
 21 22  1  0
M  END
>  <ACTIVITY>  (44) 
18

$$$$

     RDKit          3D

 15 16  0  0  0  0  0  0  0  0999 V2000
   -5.1898  -24.8463    0.0000 C   0  0  0  0  0  0  0  0  0  0  0  0
   -5.1910  -25.6732    0.0000 C   0  0  0  0  0  0  0  0  0  0  0  0
   -4.4787  -26.0856    0.0000 N   0  0  0  0  0  0  0  0  0  0  0  0
   -4.4807  -24.4338    0.0000 C   0  0  0  0  0  0  0  0  0  0  0  0
   -3.7632  -24.8423    0.0000 C   0  0  0  0  0  0  0  0  0  0  0  0
   -3.7626  -25.6732    0.0000 C   0  0  0  0  0  0  0  0  0  0  0  0
   -2.9722  -25.9294    0.0000 N   0  0  0  0  0  0  0  0  0  0  0  0
   -2.4843  -25.2569    0.0000 N   0  0  0  0  0  0  0  0  0  0  0  0
   -2.9731  -24.5851    0.0000 C   0  0  0  0  0  0  0  0  0  0  0  0
   -2.7190  -23.8010    0.0000 N   0  0  0  0  0  0  0  0  0  0  0  0
   -1.9128  -23.6292    0.0000 C   0  0  0  0  0  0  0  0  0  0  0  0
   -1.6587  -22.8450    0.0000 C   0  0  0  0  0  0  0  0  0  0  0  0
   -1.3609  -24.2413    0.0000 O   0  0  0  0  0  0  0  0  0  0  0  0
   -0.8525  -22.6732    0.0000 C   0  0  0  0  0  0  0  0  0  0  0  0
   -0.5984  -21.8891    0.0000 C   0  0  0  0  0  0  0  0  0  0  0  0
  5  4  1  0
  6  7  1  0
  7  8  1  0
  8  9  2  0
  9  5  1  0
  4  1  2  0
  9 10  1  0
  5  6  2  0
 10 11  1  0
 11 12  1  0
  2  3  2  0
 11 13  2  0
  3  6  1  0
 12 14  1  0
  1  2  1  0
 14 15  1  0
M  END
>  <ACTIVITY>  (45) 
2343

$$$$

     RDKit          2D

 24 26  0  0  0  0  0  0  0  0999 V2000
    1.4491   -1.2673    0.0000 C   0  0  0  0  0  0  0  0  0  0  0  0
    1.4882   -2.0933    0.0000 C   0  0  0  0  0  0  0  0  0  0  0  0
    2.2219   -2.4706    0.0000 C   0  0  0  0  0  0  0  0  0  0  0  0
    2.1396   -0.8205    0.0000 N   0  0  0  0  0  0  0  0  0  0  0  0
    2.8736   -1.1940    0.0000 C   0  0  0  0  0  0  0  0  0  0  0  0
    2.9142   -2.0190    0.0000 C   0  0  0  0  0  0  0  0  0  0  0  0
    3.7114   -2.2354    0.0000 C   0  0  0  0  0  0  0  0  0  0  0  0
    4.1635   -1.5441    0.0000 N   0  0  0  0  0  0  0  0  0  0  0  0
    3.6457   -0.9006    0.0000 N   0  0  0  0  0  0  0  0  0  0  0  0
    4.0051   -3.0059    0.0000 N   0  0  0  0  0  0  0  0  0  0  0  0
    4.8291   -2.9764    0.0000 C   0  0  0  0  0  0  0  0  0  0  0  0
    5.2155   -2.2480    0.0000 O   0  0  0  0  0  0  0  0  0  0  0  0
    5.2667   -3.6752    0.0000 C   0  0  0  0  0  0  0  0  0  0  0  0
    6.0907   -3.6457    0.0000 C   0  0  0  0  0  0  0  0  0  0  0  0
    0.7948   -2.5393    0.0000 B   0  0  0  0  0  0  0  0  0  0  0  0
    6.5282   -4.3445    0.0000 C   0  0  0  0  0  0  0  0  0  0  0  0
    0.0288   -2.2453    0.0000 O   0  0  0  0  0  0  0  0  0  0  0  0
   -0.4928   -2.8838    0.0000 C   0  0  0  0  0  0  0  0  0  0  0  0
   -0.0468   -3.5772    0.0000 C   0  0  0  0  0  0  0  0  0  0  0  0
    0.7505   -3.3672    0.0000 O   0  0  0  0  0  0  0  0  0  0  0  0
   -0.7663   -3.9894    0.0000 C   0  0  0  0  0  0  0  0  0  0  0  0
    0.3623   -4.2933    0.0000 C   0  0  0  0  0  0  0  0  0  0  0  0
   -1.2118   -3.2898    0.0000 C   0  0  0  0  0  0  0  0  0  0  0  0
   -0.7121   -2.0821    0.0000 C   0  0  0  0  0  0  0  0  0  0  0  0
  5  4  1  0
 14 16  1  0
  6  7  1  0
  7  8  2  0
  8  9  1  0
  9  5  1  0
  4  1  2  0
  7 10  1  0
  5  6  2  0
 10 11  1  0
 15 17  1  0
 11 12  2  0
  2  3  2  0
 11 13  1  0
 17 18  1  0
 18 19  1  0
 19 20  1  0
 20 15  1  0
  3  6  1  0
 19 21  1  0
 13 14  1  0
 19 22  1  0
  1  2  1  0
 18 23  1  0
  2 15  1  0
 18 24  1  0
M  END
>  <ACTIVITY>  (46) 
356

$$$$

     RDKit          3D

 21 23  0  0  0  0  0  0  0  0999 V2000
   -3.5773  -17.6406    0.0000 C   0  0  0  0  0  0  0  0  0  0  0  0
   -3.5786  -18.4674    0.0000 C   0  0  0  0  0  0  0  0  0  0  0  0
   -2.8664  -18.8799    0.0000 N   0  0  0  0  0  0  0  0  0  0  0  0
   -2.8684  -17.2283    0.0000 C   0  0  0  0  0  0  0  0  0  0  0  0
   -2.1509  -17.6367    0.0000 C   0  0  0  0  0  0  0  0  0  0  0  0
   -2.1504  -18.4674    0.0000 C   0  0  0  0  0  0  0  0  0  0  0  0
   -1.3602  -18.7236    0.0000 N   0  0  0  0  0  0  0  0  0  0  0  0
   -0.8724  -18.0511    0.0000 N   0  0  0  0  0  0  0  0  0  0  0  0
   -1.3611  -17.3795    0.0000 C   0  0  0  0  0  0  0  0  0  0  0  0
   -1.1070  -16.5955    0.0000 N   0  0  0  0  0  0  0  0  0  0  0  0
   -4.2912  -17.2298    0.0000 C   0  0  0  0  0  0  0  0  0  0  0  0
   -4.2906  -16.4046    0.0000 C   0  0  0  0  0  0  0  0  0  0  0  0
   -5.0038  -15.9932    0.0000 C   0  0  0  0  0  0  0  0  0  0  0  0
   -5.7182  -16.4059    0.0000 C   0  0  0  0  0  0  0  0  0  0  0  0
   -5.7148  -17.2342    0.0000 C   0  0  0  0  0  0  0  0  0  0  0  0
   -5.0010  -17.6418    0.0000 C   0  0  0  0  0  0  0  0  0  0  0  0
   -0.3010  -16.4237    0.0000 C   0  0  0  0  0  0  0  0  0  0  0  0
   -0.0468  -15.6398    0.0000 N   0  0  0  0  0  0  0  0  0  0  0  0
    0.2509  -17.0357    0.0000 O   0  0  0  0  0  0  0  0  0  0  0  0
    0.7592  -15.4678    0.0000 C   0  0  0  0  0  0  0  0  0  0  0  0
    1.0133  -14.6839    0.0000 C   0  0  0  0  0  0  0  0  0  0  0  0
  9 10  1  0
  5  6  2  0
 11 12  2  0
  2  3  2  0
 12 13  1  0
  3  6  1  0
 13 14  2  0
  1  2  1  0
 14 15  1  0
  5  4  1  0
 15 16  2  0
 16 11  1  0
  1 11  1  0
  6  7  1  0
 10 17  1  0
  7  8  1  0
 17 18  1  0
  8  9  2  0
 17 19  2  0
  9  5  1  0
 18 20  1  0
  4  1  2  0
 20 21  1  0
M  END
>  <ACTIVITY>  (47) 
2810

$$$$

     RDKit          3D

 23 26  0  0  0  0  0  0  0  0999 V2000
   14.3753  -11.8333    0.0000 C   0  0  0  0  0  0  0  0  0  0  0  0
   14.3740  -12.6608    0.0000 C   0  0  0  0  0  0  0  0  0  0  0  0
   15.0869  -13.0736    0.0000 N   0  0  0  0  0  0  0  0  0  0  0  0
   15.0850  -11.4205    0.0000 C   0  0  0  0  0  0  0  0  0  0  0  0
   15.8031  -11.8293    0.0000 C   0  0  0  0  0  0  0  0  0  0  0  0
   15.8036  -12.6608    0.0000 C   0  0  0  0  0  0  0  0  0  0  0  0
   16.5946  -12.9172    0.0000 N   0  0  0  0  0  0  0  0  0  0  0  0
   17.0830  -12.2442    0.0000 N   0  0  0  0  0  0  0  0  0  0  0  0
   16.5937  -11.5718    0.0000 C   0  0  0  0  0  0  0  0  0  0  0  0
   16.8481  -10.7871    0.0000 N   0  0  0  0  0  0  0  0  0  0  0  0
   13.6607  -11.4219    0.0000 C   0  0  0  0  0  0  0  0  0  0  0  0
   13.6613  -10.5959    0.0000 C   0  0  0  0  0  0  0  0  0  0  0  0
   12.9474  -10.1840    0.0000 C   0  0  0  0  0  0  0  0  0  0  0  0
   12.2323  -10.5972    0.0000 C   0  0  0  0  0  0  0  0  0  0  0  0
   12.2357  -11.4264    0.0000 C   0  0  0  0  0  0  0  0  0  0  0  0
   12.9502  -11.8345    0.0000 C   0  0  0  0  0  0  0  0  0  0  0  0
   17.6549  -10.6151    0.0000 C   0  0  0  0  0  0  0  0  0  0  0  0
   17.9093   -9.8303    0.0000 C   0  0  0  0  0  0  0  0  0  0  0  0
   18.2073  -11.2278    0.0000 O   0  0  0  0  0  0  0  0  0  0  0  0
   18.6890   -9.5718    0.0000 C   0  0  0  0  0  0  0  0  0  0  0  0
   18.6884   -8.7469    0.0000 C   0  0  0  0  0  0  0  0  0  0  0  0
   17.9036   -8.4925    0.0000 C   0  0  0  0  0  0  0  0  0  0  0  0
   17.4193   -9.1602    0.0000 C   0  0  0  0  0  0  0  0  0  0  0  0
 11 12  2  0
  2  3  2  0
 12 13  1  0
  3  6  1  0
 13 14  2  0
  1  2  1  0
 14 15  1  0
  5  4  1  0
 15 16  2  0
 16 11  1  0
  1 11  1  0
  6  7  1  0
 10 17  1  0
  7  8  1  0
 17 18  1  0
  8  9  2  0
 17 19  2  0
 18 20  1  0
  9  5  1  0
  4  1  2  0
  9 10  1  0
  5  6  2  0
 20 21  1  0
 21 22  1  0
 22 23  1  0
 23 18  1  0
M  END
>  <ACTIVITY>  (48) 
5

$$$$

     RDKit          3D

 21 23  0  0  0  0  0  0  0  0999 V2000
    5.8280  -11.2833    0.0000 C   0  0  0  0  0  0  0  0  0  0  0  0
    5.8267  -12.1109    0.0000 C   0  0  0  0  0  0  0  0  0  0  0  0
    6.5397  -12.5237    0.0000 N   0  0  0  0  0  0  0  0  0  0  0  0
    6.5377  -10.8705    0.0000 C   0  0  0  0  0  0  0  0  0  0  0  0
    7.2557  -11.2793    0.0000 C   0  0  0  0  0  0  0  0  0  0  0  0
    7.2563  -12.1109    0.0000 C   0  0  0  0  0  0  0  0  0  0  0  0
    8.0473  -12.3673    0.0000 N   0  0  0  0  0  0  0  0  0  0  0  0
    8.5357  -11.6942    0.0000 N   0  0  0  0  0  0  0  0  0  0  0  0
    8.0465  -11.0219    0.0000 C   0  0  0  0  0  0  0  0  0  0  0  0
    8.3009  -10.2372    0.0000 N   0  0  0  0  0  0  0  0  0  0  0  0
    5.1134  -10.8719    0.0000 C   0  0  0  0  0  0  0  0  0  0  0  0
    5.1141  -10.0459    0.0000 C   0  0  0  0  0  0  0  0  0  0  0  0
    4.4001   -9.6341    0.0000 C   0  0  0  0  0  0  0  0  0  0  0  0
    3.6851  -10.0472    0.0000 C   0  0  0  0  0  0  0  0  0  0  0  0
    3.6885  -10.8764    0.0000 C   0  0  0  0  0  0  0  0  0  0  0  0
    4.4030  -11.2845    0.0000 C   0  0  0  0  0  0  0  0  0  0  0  0
    9.1077  -10.0651    0.0000 C   0  0  0  0  0  0  0  0  0  0  0  0
    9.3621   -9.2804    0.0000 C   0  0  0  0  0  0  0  0  0  0  0  0
    9.6600  -10.6778    0.0000 O   0  0  0  0  0  0  0  0  0  0  0  0
   10.1689   -9.1083    0.0000 C   0  0  0  0  0  0  0  0  0  0  0  0
    8.8097   -8.6677    0.0000 C   0  0  0  0  0  0  0  0  0  0  0  0
  9 10  1  0
  5  6  2  0
 11 12  2  0
  2  3  2  0
 12 13  1  0
  3  6  1  0
 13 14  2  0
  1  2  1  0
 14 15  1  0
  5  4  1  0
 15 16  2  0
 16 11  1  0
  1 11  1  0
  6  7  1  0
 10 17  1  0
  7  8  1  0
 17 18  1  0
  8  9  2  0
 17 19  2  0
  9  5  1  0
 18 20  1  0
  4  1  2  0
 18 21  1  0
M  END
>  <ACTIVITY>  (49) 
19

$$$$

     RDKit          3D

 21 23  0  0  0  0  0  0  0  0999 V2000
   -2.8522  -11.1642    0.0000 C   0  0  0  0  0  0  0  0  0  0  0  0
   -2.8535  -11.9917    0.0000 C   0  0  0  0  0  0  0  0  0  0  0  0
   -2.1406  -12.4046    0.0000 N   0  0  0  0  0  0  0  0  0  0  0  0
   -2.1425  -10.7514    0.0000 C   0  0  0  0  0  0  0  0  0  0  0  0
   -1.4244  -11.1601    0.0000 C   0  0  0  0  0  0  0  0  0  0  0  0
   -1.4238  -11.9917    0.0000 C   0  0  0  0  0  0  0  0  0  0  0  0
   -0.6329  -12.2482    0.0000 N   0  0  0  0  0  0  0  0  0  0  0  0
   -0.1445  -11.5751    0.0000 N   0  0  0  0  0  0  0  0  0  0  0  0
   -0.6338  -10.9027    0.0000 C   0  0  0  0  0  0  0  0  0  0  0  0
   -0.3794  -10.1181    0.0000 N   0  0  0  0  0  0  0  0  0  0  0  0
   -3.5668  -10.7528    0.0000 C   0  0  0  0  0  0  0  0  0  0  0  0
   -3.5662   -9.9268    0.0000 C   0  0  0  0  0  0  0  0  0  0  0  0
   -4.2801   -9.5150    0.0000 C   0  0  0  0  0  0  0  0  0  0  0  0
   -4.9952   -9.9281    0.0000 C   0  0  0  0  0  0  0  0  0  0  0  0
   -4.9918  -10.7573    0.0000 C   0  0  0  0  0  0  0  0  0  0  0  0
   -4.2773  -11.1654    0.0000 C   0  0  0  0  0  0  0  0  0  0  0  0
    0.4274   -9.9459    0.0000 C   0  0  0  0  0  0  0  0  0  0  0  0
    0.6818   -9.1612    0.0000 C   0  0  0  0  0  0  0  0  0  0  0  0
    0.9798  -10.5587    0.0000 O   0  0  0  0  0  0  0  0  0  0  0  0
    1.4886   -8.9892    0.0000 C   0  0  0  0  0  0  0  0  0  0  0  0
    1.7430   -8.2044    0.0000 C   0  0  0  0  0  0  0  0  0  0  0  0
  9 10  1  0
  5  6  2  0
 11 12  2  0
  2  3  2  0
 12 13  1  0
  3  6  1  0
 13 14  2  0
  1  2  1  0
 14 15  1  0
  5  4  1  0
 15 16  2  0
 16 11  1  0
  1 11  1  0
  6  7  1  0
 10 17  1  0
  7  8  1  0
 17 18  1  0
  8  9  2  0
 17 19  2  0
  9  5  1  0
 18 20  1  0
  4  1  2  0
 20 21  1  0
M  END
>  <ACTIVITY>  (50) 
56

$$$$

     RDKit          3D

 20 22  0  0  0  0  0  0  0  0999 V2000
   13.5483   -4.7686    0.0000 C   0  0  0  0  0  0  0  0  0  0  0  0
   13.5470   -5.5956    0.0000 C   0  0  0  0  0  0  0  0  0  0  0  0
   14.2596   -6.0083    0.0000 N   0  0  0  0  0  0  0  0  0  0  0  0
   14.2576   -4.3560    0.0000 C   0  0  0  0  0  0  0  0  0  0  0  0
   14.9753   -4.7645    0.0000 C   0  0  0  0  0  0  0  0  0  0  0  0
   14.9759   -5.5956    0.0000 C   0  0  0  0  0  0  0  0  0  0  0  0
   15.7665   -5.8520    0.0000 N   0  0  0  0  0  0  0  0  0  0  0  0
   16.2547   -5.1793    0.0000 N   0  0  0  0  0  0  0  0  0  0  0  0
   15.7657   -4.5072    0.0000 C   0  0  0  0  0  0  0  0  0  0  0  0
   16.0199   -3.7229    0.0000 N   0  0  0  0  0  0  0  0  0  0  0  0
   12.8340   -4.3574    0.0000 C   0  0  0  0  0  0  0  0  0  0  0  0
   12.8347   -3.5318    0.0000 C   0  0  0  0  0  0  0  0  0  0  0  0
   12.1211   -3.1201    0.0000 C   0  0  0  0  0  0  0  0  0  0  0  0
   11.4064   -3.5331    0.0000 C   0  0  0  0  0  0  0  0  0  0  0  0
   11.4098   -4.3619    0.0000 C   0  0  0  0  0  0  0  0  0  0  0  0
   12.1240   -4.7698    0.0000 C   0  0  0  0  0  0  0  0  0  0  0  0
   16.8263   -3.5509    0.0000 C   0  0  0  0  0  0  0  0  0  0  0  0
   17.0806   -2.7666    0.0000 C   0  0  0  0  0  0  0  0  0  0  0  0
   17.3784   -4.1634    0.0000 O   0  0  0  0  0  0  0  0  0  0  0  0
   17.8870   -2.5946    0.0000 C   0  0  0  0  0  0  0  0  0  0  0  0
  4  1  2  0
  9 10  1  0
  5  6  2  0
 11 12  2  0
  2  3  2  0
 12 13  1  0
  3  6  1  0
 13 14  2  0
  1  2  1  0
 14 15  1  0
  5  4  1  0
 15 16  2  0
 16 11  1  0
  1 11  1  0
  6  7  1  0
 10 17  1  0
  7  8  1  0
 17 18  1  0
  8  9  2  0
 17 19  2  0
  9  5  1  0
 18 20  1  0
M  END
>  <ACTIVITY>  (51) 
43

$$$$

     RDKit          3D

 19 21  0  0  0  0  0  0  0  0999 V2000
    4.9339   -4.7661    0.0000 C   0  0  0  0  0  0  0  0  0  0  0  0
    4.9327   -5.5928    0.0000 C   0  0  0  0  0  0  0  0  0  0  0  0
    5.6449   -6.0053    0.0000 N   0  0  0  0  0  0  0  0  0  0  0  0
    5.6429   -4.3538    0.0000 C   0  0  0  0  0  0  0  0  0  0  0  0
    6.3603   -4.7621    0.0000 C   0  0  0  0  0  0  0  0  0  0  0  0
    6.3609   -5.5928    0.0000 C   0  0  0  0  0  0  0  0  0  0  0  0
    7.1511   -5.8490    0.0000 N   0  0  0  0  0  0  0  0  0  0  0  0
    7.6390   -5.1767    0.0000 N   0  0  0  0  0  0  0  0  0  0  0  0
    7.1503   -4.5050    0.0000 C   0  0  0  0  0  0  0  0  0  0  0  0
    7.4043   -3.7211    0.0000 N   0  0  0  0  0  0  0  0  0  0  0  0
    4.2201   -4.3552    0.0000 C   0  0  0  0  0  0  0  0  0  0  0  0
    4.2207   -3.5300    0.0000 C   0  0  0  0  0  0  0  0  0  0  0  0
    3.5076   -3.1186    0.0000 C   0  0  0  0  0  0  0  0  0  0  0  0
    2.7932   -3.5313    0.0000 C   0  0  0  0  0  0  0  0  0  0  0  0
    2.7965   -4.3597    0.0000 C   0  0  0  0  0  0  0  0  0  0  0  0
    3.5103   -4.7674    0.0000 C   0  0  0  0  0  0  0  0  0  0  0  0
    8.2104   -3.5491    0.0000 C   0  0  0  0  0  0  0  0  0  0  0  0
    8.4645   -2.7652    0.0000 C   0  0  0  0  0  0  0  0  0  0  0  0
    8.7622   -4.1612    0.0000 O   0  0  0  0  0  0  0  0  0  0  0  0
  9  5  1  0
  4  1  2  0
  9 10  1  0
  5  6  2  0
 11 12  2  0
  2  3  2  0
 12 13  1  0
  3  6  1  0
 13 14  2  0
  1  2  1  0
 14 15  1  0
  5  4  1  0
 15 16  2  0
 16 11  1  0
  1 11  1  0
  6  7  1  0
 10 17  1  0
  7  8  1  0
 17 18  1  0
  8  9  2  0
 17 19  2  0
M  END
>  <ACTIVITY>  (52) 
291

$$$$

     RDKit          3D

 30 34  0  0  0  0  0  0  0  0999 V2000
    6.8963  -21.9450    0.0000 C   0  0  0  0  0  0  0  0  0  0  0  0
    6.8950  -22.7725    0.0000 C   0  0  0  0  0  0  0  0  0  0  0  0
    7.6080  -23.1854    0.0000 N   0  0  0  0  0  0  0  0  0  0  0  0
    7.6060  -21.5321    0.0000 C   0  0  0  0  0  0  0  0  0  0  0  0
    8.3242  -21.9409    0.0000 C   0  0  0  0  0  0  0  0  0  0  0  0
    8.3248  -22.7725    0.0000 C   0  0  0  0  0  0  0  0  0  0  0  0
    9.1158  -23.0290    0.0000 N   0  0  0  0  0  0  0  0  0  0  0  0
    9.6042  -22.3559    0.0000 N   0  0  0  0  0  0  0  0  0  0  0  0
    9.1149  -21.6835    0.0000 C   0  0  0  0  0  0  0  0  0  0  0  0
    9.3693  -20.8987    0.0000 N   0  0  0  0  0  0  0  0  0  0  0  0
   10.1762  -20.7266    0.0000 C   0  0  0  0  0  0  0  0  0  0  0  0
   10.7286  -21.3394    0.0000 O   0  0  0  0  0  0  0  0  0  0  0  0
   10.4250  -19.9410    0.0000 C   0  0  0  0  0  0  0  0  0  0  0  0
    6.1810  -23.1861    0.0000 C   0  0  0  0  0  0  0  0  0  0  0  0
    5.4277  -22.8495    0.0000 O   0  0  0  0  0  0  0  0  0  0  0  0
    4.8749  -23.4617    0.0000 C   0  0  0  0  0  0  0  0  0  0  0  0
    5.2864  -24.1768    0.0000 C   0  0  0  0  0  0  0  0  0  0  0  0
    6.0935  -24.0063    0.0000 C   0  0  0  0  0  0  0  0  0  0  0  0
    6.1815  -21.5330    0.0000 Br  0  0  0  0  0  0  0  0  0  0  0  0
   11.2034  -19.6780    0.0000 C   0  0  0  0  0  0  0  0  0  0  0  0
   11.1972  -18.8538    0.0000 N   0  0  0  0  0  0  0  0  0  0  0  0
   10.4115  -18.6050    0.0000 C   0  0  0  0  0  0  0  0  0  0  0  0
    9.9322  -19.2754    0.0000 C   0  0  0  0  0  0  0  0  0  0  0  0
   11.8609  -18.3640    0.0000 C   0  0  0  0  0  0  0  0  0  0  0  0
   12.6172  -18.6939    0.0000 C   0  0  0  0  0  0  0  0  0  0  0  0
   12.7072  -19.5122    0.0000 C   0  0  0  0  0  0  0  0  0  0  0  0
   13.4625  -19.8422    0.0000 C   0  0  0  0  0  0  0  0  0  0  0  0
   14.1273  -19.3521    0.0000 C   0  0  0  0  0  0  0  0  0  0  0  0
   14.0318  -18.5284    0.0000 C   0  0  0  0  0  0  0  0  0  0  0  0
   13.2763  -18.2022    0.0000 C   0  0  0  0  0  0  0  0  0  0  0  0
  1  2  2  0
  5  4  2  0
  6  7  1  0
  7  8  1  0
 15 16  1  0
 16 17  2  0
 17 18  1  0
 18 14  2  0
  2 14  1  0
  8  9  2  0
  1 19  1  0
 13 20  1  0
  9  5  1  0
  4  1  1  0
  9 10  1  0
  5  6  1  0
 20 21  1  0
 21 22  1  0
 22 23  1  0
 23 13  1  0
 10 11  1  0
 21 24  1  0
 24 25  1  0
 11 12  2  0
 25 26  2  0
  2  3  1  0
 26 27  1  0
 11 13  1  0
 27 28  2  0
 14 15  1  0
 28 29  1  0
  3  6  2  0
 29 30  2  0
 30 25  1  0
M  END
>  <ACTIVITY>  (53) 
14

$$$$

     RDKit          2D

 26 29  0  0  0  0  0  0  0  0999 V2000
   -2.5705    0.8815    0.0000 C   0  0  0  0  0  0  0  0  0  0  0  0
   -2.1389    0.1758    0.0000 C   0  0  0  0  0  0  0  0  0  0  0  0
   -1.3139    0.1977    0.0000 C   0  0  0  0  0  0  0  0  0  0  0  0
   -2.1796    1.6055    0.0000 N   0  0  0  0  0  0  0  0  0  0  0  0
   -1.3561    1.6308    0.0000 C   0  0  0  0  0  0  0  0  0  0  0  0
   -0.9238    0.9266    0.0000 C   0  0  0  0  0  0  0  0  0  0  0  0
   -0.1205    1.1201    0.0000 C   0  0  0  0  0  0  0  0  0  0  0  0
   -0.0563    1.9440    0.0000 N   0  0  0  0  0  0  0  0  0  0  0  0
   -0.8199    2.2594    0.0000 N   0  0  0  0  0  0  0  0  0  0  0  0
    0.5077    0.5855    0.0000 N   0  0  0  0  0  0  0  0  0  0  0  0
    1.2163    1.0077    0.0000 C   0  0  0  0  0  0  0  0  0  0  0  0
    1.2050    1.8324    0.0000 O   0  0  0  0  0  0  0  0  0  0  0  0
    1.9362    0.6050    0.0000 C   0  0  0  0  0  0  0  0  0  0  0  0
   -3.3966    0.8595    0.0000 C   0  0  0  0  0  0  0  0  0  0  0  0
   -3.8993    1.5135    0.0000 S   0  0  0  0  0  0  0  0  0  0  0  0
   -4.6765    1.2375    0.0000 C   0  0  0  0  0  0  0  0  0  0  0  0
   -4.6543    0.4130    0.0000 C   0  0  0  0  0  0  0  0  0  0  0  0
   -3.8633    0.1795    0.0000 C   0  0  0  0  0  0  0  0  0  0  0  0
   -2.5328   -0.5490    0.0000 Br  0  0  0  0  0  0  0  0  0  0  0  0
    2.6448    1.0272    0.0000 C   0  0  0  0  0  0  0  0  0  0  0  0
    3.3606    0.6239    0.0000 C   0  0  0  0  0  0  0  0  0  0  0  0
    4.0670    1.0425    0.0000 C   0  0  0  0  0  0  0  0  0  0  0  0
    4.0600    1.8676    0.0000 N   0  0  0  0  0  0  0  0  0  0  0  0
    3.3403    2.2724    0.0000 C   0  0  0  0  0  0  0  0  0  0  0  0
    2.6275    1.8521    0.0000 C   0  0  0  0  0  0  0  0  0  0  0  0
    4.7703    2.2870    0.0000 C   0  0  0  0  0  0  0  0  0  0  0  0
  2  3  2  0
 11 13  1  0
 14 15  1  0
  3  6  1  0
  1  2  1  0
  5  4  1  0
  6  7  1  0
  7  8  2  0
 15 16  1  0
 16 17  2  0
 17 18  1  0
 18 14  2  0
  1 14  1  0
  8  9  1  0
  2 19  1  0
  9  5  1  0
 13 20  1  0
 20 21  1  0
  4  1  2  0
  7 10  1  0
  5  6  2  0
 10 11  1  0
 20 25  1  0
 21 22  1  0
 22 23  1  0
 23 24  1  0
 24 25  1  0
 11 12  2  0
 23 26  1  0
M  END
>  <ACTIVITY>  (54) 
18

$$$$

     RDKit          3D

 23 26  0  0  0  0  0  0  0  0999 V2000
   12.9638  -14.1477    0.0000 C   0  0  0  0  0  0  0  0  0  0  0  0
   12.9625  -14.9752    0.0000 C   0  0  0  0  0  0  0  0  0  0  0  0
   13.6754  -15.3881    0.0000 N   0  0  0  0  0  0  0  0  0  0  0  0
   13.6734  -13.7349    0.0000 C   0  0  0  0  0  0  0  0  0  0  0  0
   14.3915  -14.1437    0.0000 C   0  0  0  0  0  0  0  0  0  0  0  0
   14.3920  -14.9752    0.0000 C   0  0  0  0  0  0  0  0  0  0  0  0
   15.1831  -15.2317    0.0000 N   0  0  0  0  0  0  0  0  0  0  0  0
   15.6715  -14.5587    0.0000 N   0  0  0  0  0  0  0  0  0  0  0  0
   15.1822  -13.8863    0.0000 C   0  0  0  0  0  0  0  0  0  0  0  0
   15.4366  -13.1016    0.0000 N   0  0  0  0  0  0  0  0  0  0  0  0
   16.2434  -12.9295    0.0000 C   0  0  0  0  0  0  0  0  0  0  0  0
   16.7958  -13.5422    0.0000 O   0  0  0  0  0  0  0  0  0  0  0  0
   16.4922  -12.1439    0.0000 C   0  0  0  0  0  0  0  0  0  0  0  0
   12.2484  -15.3888    0.0000 C   0  0  0  0  0  0  0  0  0  0  0  0
   11.4953  -15.0522    0.0000 S   0  0  0  0  0  0  0  0  0  0  0  0
   10.9423  -15.6644    0.0000 C   0  0  0  0  0  0  0  0  0  0  0  0
   11.3538  -16.3795    0.0000 C   0  0  0  0  0  0  0  0  0  0  0  0
   12.1609  -16.2090    0.0000 N   0  0  0  0  0  0  0  0  0  0  0  0
   12.2489  -13.7358    0.0000 Br  0  0  0  0  0  0  0  0  0  0  0  0
   17.2704  -11.8809    0.0000 C   0  0  0  0  0  0  0  0  0  0  0  0
   17.2644  -11.0568    0.0000 C   0  0  0  0  0  0  0  0  0  0  0  0
   16.4787  -10.8080    0.0000 C   0  0  0  0  0  0  0  0  0  0  0  0
   15.9993  -11.4783    0.0000 C   0  0  0  0  0  0  0  0  0  0  0  0
 10 11  1  0
 11 12  2  0
  2  3  1  0
 11 13  1  0
 14 15  1  0
  3  6  2  0
  1  2  2  0
  5  4  2  0
  6  7  1  0
  7  8  1  0
 15 16  1  0
 16 17  2  0
 17 18  1  0
 18 14  2  0
  2 14  1  0
  8  9  2  0
  1 19  1  0
 13 20  1  0
  9  5  1  0
  4  1  1  0
  9 10  1  0
  5  6  1  0
 20 21  1  0
 21 22  1  0
 22 23  1  0
 23 13  1  0
M  END
>  <ACTIVITY>  (55) 
16

$$$$

     RDKit          3D

 21 24  0  0  0  0  0  0  0  0999 V2000
    4.4989  -13.9140    0.0000 C   0  0  0  0  0  0  0  0  0  0  0  0
    4.4977  -14.7415    0.0000 C   0  0  0  0  0  0  0  0  0  0  0  0
    5.2105  -15.1544    0.0000 N   0  0  0  0  0  0  0  0  0  0  0  0
    5.2086  -13.5012    0.0000 C   0  0  0  0  0  0  0  0  0  0  0  0
    5.9267  -13.9099    0.0000 C   0  0  0  0  0  0  0  0  0  0  0  0
    5.9272  -14.7415    0.0000 C   0  0  0  0  0  0  0  0  0  0  0  0
    6.7183  -14.9980    0.0000 N   0  0  0  0  0  0  0  0  0  0  0  0
    7.2067  -14.3249    0.0000 N   0  0  0  0  0  0  0  0  0  0  0  0
    6.7174  -13.6525    0.0000 C   0  0  0  0  0  0  0  0  0  0  0  0
    6.9717  -12.8679    0.0000 N   0  0  0  0  0  0  0  0  0  0  0  0
    7.7786  -12.6957    0.0000 C   0  0  0  0  0  0  0  0  0  0  0  0
    8.3310  -13.3085    0.0000 O   0  0  0  0  0  0  0  0  0  0  0  0
    8.0274  -11.9102    0.0000 C   0  0  0  0  0  0  0  0  0  0  0  0
    8.6401  -11.3578    0.0000 C   0  0  0  0  0  0  0  0  0  0  0  0
    7.8553  -11.1034    0.0000 C   0  0  0  0  0  0  0  0  0  0  0  0
    3.7836  -15.1550    0.0000 C   0  0  0  0  0  0  0  0  0  0  0  0
    3.0305  -14.8185    0.0000 S   0  0  0  0  0  0  0  0  0  0  0  0
    2.4776  -15.4307    0.0000 C   0  0  0  0  0  0  0  0  0  0  0  0
    2.8890  -16.1457    0.0000 C   0  0  0  0  0  0  0  0  0  0  0  0
    3.6962  -15.9752    0.0000 N   0  0  0  0  0  0  0  0  0  0  0  0
    3.7842  -13.5021    0.0000 Br  0  0  0  0  0  0  0  0  0  0  0  0
  9 10  1  0
  5  6  1  0
 10 11  1  0
 11 12  2  0
 14 13  1  0
 15 14  1  0
 13 15  1  0
  2  3  1  0
  3  6  2  0
  1  2  2  0
 11 13  1  0
 16 17  1  0
  5  4  2  0
  6  7  1  0
  7  8  1  0
  8  9  2  0
  9  5  1  0
 17 18  1  0
 18 19  2  0
 19 20  1  0
 20 16  2  0
  2 16  1  0
  4  1  1  0
  1 21  1  0
M  END
>  <ACTIVITY>  (56) 
99

$$$$

     RDKit          2D

 21 24  0  0  0  0  0  0  0  0999 V2000
    2.7845    0.6979    0.0000 Br  0  0  0  0  0  0  0  0  0  0  0  0
    2.0701    1.1104    0.0000 C   0  0  0  0  0  0  0  0  0  0  0  0
    1.3556    0.6979    0.0000 C   0  0  0  0  0  0  0  0  0  0  0  0
    0.6411    1.1104    0.0000 C   0  0  0  0  0  0  0  0  0  0  0  0
   -0.1435    0.8555    0.0000 C   0  0  0  0  0  0  0  0  0  0  0  0
   -0.3984    0.0709    0.0000 N   0  0  0  0  0  0  0  0  0  0  0  0
   -1.2054   -0.1006    0.0000 C   0  0  0  0  0  0  0  0  0  0  0  0
   -1.7575    0.5124    0.0000 O   0  0  0  0  0  0  0  0  0  0  0  0
   -1.4604   -0.8853    0.0000 C   0  0  0  0  0  0  0  0  0  0  0  0
   -1.2888   -1.6922    0.0000 C   0  0  0  0  0  0  0  0  0  0  0  0
   -2.0735   -1.4373    0.0000 C   0  0  0  0  0  0  0  0  0  0  0  0
   -0.6284    1.5229    0.0000 N   0  0  0  0  0  0  0  0  0  0  0  0
   -0.1435    2.1904    0.0000 N   0  0  0  0  0  0  0  0  0  0  0  0
    0.6411    1.9354    0.0000 C   0  0  0  0  0  0  0  0  0  0  0  0
    1.3556    2.3479    0.0000 N   0  0  0  0  0  0  0  0  0  0  0  0
    2.0701    1.9354    0.0000 C   0  0  0  0  0  0  0  0  0  0  0  0
    2.7845    2.3479    0.0000 C   0  0  0  0  0  0  0  0  0  0  0  0
    2.8708    3.1684    0.0000 C   0  0  0  0  0  0  0  0  0  0  0  0
    3.6777    3.3400    0.0000 C   0  0  0  0  0  0  0  0  0  0  0  0
    4.0902    2.6255    0.0000 C   0  0  0  0  0  0  0  0  0  0  0  0
    3.5382    2.0124    0.0000 O   0  0  0  0  0  0  0  0  0  0  0  0
  1  2  1  0
  2  3  2  0
  3  4  1  0
  4  5  1  0
  5  6  1  0
  6  7  1  0
  7  8  2  0
  7  9  1  0
  9 10  1  0
 10 11  1  0
  9 11  1  0
  5 12  2  0
 12 13  1  0
 13 14  1  0
  4 14  2  0
 14 15  1  0
 15 16  2  0
  2 16  1  0
 16 17  1  0
 17 18  2  0
 18 19  1  0
 19 20  2  0
 20 21  1  0
 17 21  1  0
M  END
>  <ACTIVITY>  (57) 
7

$$$$

     RDKit          2D

 20 23  0  0  0  0  0  0  0  0999 V2000
    2.2428   -2.5916    0.0000 O   0  0  0  0  0  0  0  0  0  0  0  0
    1.4358   -2.7631    0.0000 C   0  0  0  0  0  0  0  0  0  0  0  0
    0.8838   -2.1500    0.0000 N   0  0  0  0  0  0  0  0  0  0  0  0
    1.1387   -1.3654    0.0000 C   0  0  0  0  0  0  0  0  0  0  0  0
    0.6538   -0.6979    0.0000 N   0  0  0  0  0  0  0  0  0  0  0  0
    1.1387   -0.0305    0.0000 N   0  0  0  0  0  0  0  0  0  0  0  0
    1.9233   -0.2854    0.0000 C   0  0  0  0  0  0  0  0  0  0  0  0
    2.6378    0.1271    0.0000 N   0  0  0  0  0  0  0  0  0  0  0  0
    3.3523   -0.2854    0.0000 C   0  0  0  0  0  0  0  0  0  0  0  0
    3.3523   -1.1104    0.0000 C   0  0  0  0  0  0  0  0  0  0  0  0
    2.6378   -1.5229    0.0000 C   0  0  0  0  0  0  0  0  0  0  0  0
    1.9233   -1.1104    0.0000 C   0  0  0  0  0  0  0  0  0  0  0  0
    4.0668    0.1271    0.0000 C   0  0  0  0  0  0  0  0  0  0  0  0
    4.1530    0.9475    0.0000 C   0  0  0  0  0  0  0  0  0  0  0  0
    4.9600    1.1191    0.0000 C   0  0  0  0  0  0  0  0  0  0  0  0
    5.3725    0.4046    0.0000 C   0  0  0  0  0  0  0  0  0  0  0  0
    4.8204   -0.2085    0.0000 O   0  0  0  0  0  0  0  0  0  0  0  0
    1.1809   -3.5477    0.0000 C   0  0  0  0  0  0  0  0  0  0  0  0
    1.3524   -4.3547    0.0000 C   0  0  0  0  0  0  0  0  0  0  0  0
    0.5678   -4.0998    0.0000 C   0  0  0  0  0  0  0  0  0  0  0  0
  1  2  2  0
  2  3  1  0
  3  4  1  0
  4  5  2  0
  5  6  1  0
  6  7  1  0
  7  8  2  0
  8  9  1  0
  9 10  2  0
 10 11  1  0
 11 12  2  0
  4 12  1  0
  7 12  1  0
  9 13  1  0
 13 14  2  0
 14 15  1  0
 15 16  2  0
 16 17  1  0
 13 17  1  0
  2 18  1  0
 18 19  1  0
 19 20  1  0
 18 20  1  0
M  END
>  <ACTIVITY>  (58) 
141

$$$$

     RDKit          3D

 23 26  0  0  0  0  0  0  0  0999 V2000
    4.2471   -7.1130    0.0000 C   0  0  0  0  0  0  0  0  0  0  0  0
    4.2457   -7.9406    0.0000 C   0  0  0  0  0  0  0  0  0  0  0  0
    4.9587   -8.3536    0.0000 N   0  0  0  0  0  0  0  0  0  0  0  0
    4.9568   -6.7003    0.0000 C   0  0  0  0  0  0  0  0  0  0  0  0
    5.6748   -7.1091    0.0000 C   0  0  0  0  0  0  0  0  0  0  0  0
    5.6754   -7.9406    0.0000 C   0  0  0  0  0  0  0  0  0  0  0  0
    6.4665   -8.1971    0.0000 N   0  0  0  0  0  0  0  0  0  0  0  0
    6.9548   -7.5240    0.0000 N   0  0  0  0  0  0  0  0  0  0  0  0
    6.4656   -6.8517    0.0000 C   0  0  0  0  0  0  0  0  0  0  0  0
    6.7200   -6.0668    0.0000 N   0  0  0  0  0  0  0  0  0  0  0  0
    7.5268   -5.8948    0.0000 C   0  0  0  0  0  0  0  0  0  0  0  0
    8.0792   -6.5075    0.0000 O   0  0  0  0  0  0  0  0  0  0  0  0
    7.7756   -5.1092    0.0000 C   0  0  0  0  0  0  0  0  0  0  0  0
    3.5317   -8.3541    0.0000 C   0  0  0  0  0  0  0  0  0  0  0  0
    2.7785   -8.0175    0.0000 S   0  0  0  0  0  0  0  0  0  0  0  0
    2.2256   -8.6299    0.0000 C   0  0  0  0  0  0  0  0  0  0  0  0
    2.6371   -9.3450    0.0000 C   0  0  0  0  0  0  0  0  0  0  0  0
    3.4442   -9.1745    0.0000 C   0  0  0  0  0  0  0  0  0  0  0  0
    3.5322   -6.7012    0.0000 Br  0  0  0  0  0  0  0  0  0  0  0  0
    8.5539   -4.8462    0.0000 C   0  0  0  0  0  0  0  0  0  0  0  0
    8.5478   -4.0221    0.0000 C   0  0  0  0  0  0  0  0  0  0  0  0
    7.7621   -3.7733    0.0000 C   0  0  0  0  0  0  0  0  0  0  0  0
    7.2827   -4.4436    0.0000 C   0  0  0  0  0  0  0  0  0  0  0  0
 10 11  1  0
 11 12  2  0
  2  3  1  0
 11 13  1  0
 14 15  1  0
  3  6  2  0
  1  2  2  0
  5  4  2  0
  6  7  1  0
  7  8  1  0
 15 16  1  0
 16 17  2  0
 17 18  1  0
 18 14  2  0
  2 14  1  0
  8  9  2  0
  1 19  1  0
 13 20  1  0
  9  5  1  0
  4  1  1  0
  9 10  1  0
  5  6  1  0
 20 21  1  0
 21 22  1  0
 22 23  1  0
 23 13  1  0
M  END
>  <ACTIVITY>  (59) 
7

$$$$

     RDKit          3D

 21 24  0  0  0  0  0  0  0  0999 V2000
   -3.1684   -6.9707    0.0000 C   0  0  0  0  0  0  0  0  0  0  0  0
   -3.1698   -7.7982    0.0000 C   0  0  0  0  0  0  0  0  0  0  0  0
   -2.4568   -8.2111    0.0000 N   0  0  0  0  0  0  0  0  0  0  0  0
   -2.4588   -6.5579    0.0000 C   0  0  0  0  0  0  0  0  0  0  0  0
   -1.7406   -6.9667    0.0000 C   0  0  0  0  0  0  0  0  0  0  0  0
   -1.7401   -7.7982    0.0000 C   0  0  0  0  0  0  0  0  0  0  0  0
   -0.9491   -8.0547    0.0000 N   0  0  0  0  0  0  0  0  0  0  0  0
   -0.4608   -7.3817    0.0000 N   0  0  0  0  0  0  0  0  0  0  0  0
   -0.9500   -6.7093    0.0000 C   0  0  0  0  0  0  0  0  0  0  0  0
   -0.6956   -5.9246    0.0000 N   0  0  0  0  0  0  0  0  0  0  0  0
    0.1112   -5.7525    0.0000 C   0  0  0  0  0  0  0  0  0  0  0  0
    0.6636   -6.3652    0.0000 O   0  0  0  0  0  0  0  0  0  0  0  0
    0.3600   -4.9669    0.0000 C   0  0  0  0  0  0  0  0  0  0  0  0
    0.9728   -4.4145    0.0000 C   0  0  0  0  0  0  0  0  0  0  0  0
    0.1880   -4.1601    0.0000 C   0  0  0  0  0  0  0  0  0  0  0  0
   -3.8837   -8.2118    0.0000 C   0  0  0  0  0  0  0  0  0  0  0  0
   -4.6369   -7.8752    0.0000 S   0  0  0  0  0  0  0  0  0  0  0  0
   -5.1898   -8.4874    0.0000 C   0  0  0  0  0  0  0  0  0  0  0  0
   -4.7783   -9.2025    0.0000 C   0  0  0  0  0  0  0  0  0  0  0  0
   -3.9712   -9.0320    0.0000 C   0  0  0  0  0  0  0  0  0  0  0  0
   -3.8832   -6.5588    0.0000 Br  0  0  0  0  0  0  0  0  0  0  0  0
  9 10  1  0
  5  6  1  0
 10 11  1  0
 11 12  2  0
 14 13  1  0
 15 14  1  0
 13 15  1  0
  2  3  1  0
  3  6  2  0
  1  2  2  0
 11 13  1  0
 16 17  1  0
  5  4  2  0
  6  7  1  0
  7  8  1  0
  8  9  2  0
  9  5  1  0
 17 18  1  0
 18 19  2  0
 19 20  1  0
 20 16  2  0
  2 16  1  0
  4  1  1  0
  1 21  1  0
M  END
>  <ACTIVITY>  (60) 
39

$$$$

     RDKit          3D

 22 25  0  0  0  0  0  0  0  0999 V2000
   13.3939  -23.7343    0.0000 C   0  0  0  0  0  0  0  0  0  0  0  0
   13.3927  -24.5618    0.0000 C   0  0  0  0  0  0  0  0  0  0  0  0
   14.1055  -24.9747    0.0000 N   0  0  0  0  0  0  0  0  0  0  0  0
   14.1036  -23.3216    0.0000 C   0  0  0  0  0  0  0  0  0  0  0  0
   14.8217  -23.7303    0.0000 C   0  0  0  0  0  0  0  0  0  0  0  0
   14.8222  -24.5618    0.0000 C   0  0  0  0  0  0  0  0  0  0  0  0
   15.6132  -24.8183    0.0000 N   0  0  0  0  0  0  0  0  0  0  0  0
   16.1016  -24.1452    0.0000 N   0  0  0  0  0  0  0  0  0  0  0  0
   15.6124  -23.4729    0.0000 C   0  0  0  0  0  0  0  0  0  0  0  0
   15.8667  -22.6882    0.0000 N   0  0  0  0  0  0  0  0  0  0  0  0
   16.6735  -22.5162    0.0000 C   0  0  0  0  0  0  0  0  0  0  0  0
   16.9278  -21.7315    0.0000 C   0  0  0  0  0  0  0  0  0  0  0  0
   17.2259  -23.1288    0.0000 O   0  0  0  0  0  0  0  0  0  0  0  0
   12.6804  -24.9714    0.0000 C   0  0  0  0  0  0  0  0  0  0  0  0
   11.9664  -24.5562    0.0000 C   0  0  0  0  0  0  0  0  0  0  0  0
   11.2518  -24.9669    0.0000 C   0  0  0  0  0  0  0  0  0  0  0  0
   11.2502  -25.7927    0.0000 C   0  0  0  0  0  0  0  0  0  0  0  0
   11.9690  -26.2060    0.0000 C   0  0  0  0  0  0  0  0  0  0  0  0
   12.6805  -25.7929    0.0000 C   0  0  0  0  0  0  0  0  0  0  0  0
   17.5349  -21.1782    0.0000 C   0  0  0  0  0  0  0  0  0  0  0  0
   16.7502  -20.9239    0.0000 C   0  0  0  0  0  0  0  0  0  0  0  0
   11.9708  -27.0309    0.0000 O   0  0  0  0  0  0  0  0  0  0  0  0
  5  6  1  0
 10 11  1  0
 11 12  1  0
  2  3  1  0
 11 13  2  0
  3  6  2  0
  1  2  2  0
 14 15  2  0
  5  4  2  0
 15 16  1  0
  6  7  1  0
 16 17  2  0
  7  8  1  0
 17 18  1  0
  8  9  2  0
 18 19  2  0
 19 14  1  0
  2 14  1  0
 20 12  1  0
 21 20  1  0
 12 21  1  0
  9  5  1  0
  4  1  1  0
  9 10  1  0
 18 22  1  0
M  END
>  <ACTIVITY>  (61) 
12

$$$$

     RDKit          3D

 31 34  0  0  0  0  0  0  0  0999 V2000
   -2.9900   -1.1504    0.0000 C   0  0  0  0  0  0  0  0  0  0  0  0
   -2.9913   -1.9781    0.0000 C   0  0  0  0  0  0  0  0  0  0  0  0
   -2.2783   -2.3909    0.0000 N   0  0  0  0  0  0  0  0  0  0  0  0
   -2.2803   -0.7376    0.0000 C   0  0  0  0  0  0  0  0  0  0  0  0
   -1.5620   -1.1465    0.0000 C   0  0  0  0  0  0  0  0  0  0  0  0
   -1.5615   -1.9781    0.0000 C   0  0  0  0  0  0  0  0  0  0  0  0
   -0.7705   -2.2345    0.0000 N   0  0  0  0  0  0  0  0  0  0  0  0
   -0.2820   -1.5614    0.0000 N   0  0  0  0  0  0  0  0  0  0  0  0
   -0.7713   -0.8889    0.0000 C   0  0  0  0  0  0  0  0  0  0  0  0
   -0.5169   -0.1042    0.0000 N   0  0  0  0  0  0  0  0  0  0  0  0
    0.2900    0.0679    0.0000 C   0  0  0  0  0  0  0  0  0  0  0  0
    0.8424   -0.5448    0.0000 O   0  0  0  0  0  0  0  0  0  0  0  0
   -3.7036   -2.3877    0.0000 C   0  0  0  0  0  0  0  0  0  0  0  0
   -4.4178   -1.9725    0.0000 C   0  0  0  0  0  0  0  0  0  0  0  0
   -5.1324   -2.3832    0.0000 C   0  0  0  0  0  0  0  0  0  0  0  0
   -5.1341   -3.2091    0.0000 C   0  0  0  0  0  0  0  0  0  0  0  0
   -4.4151   -3.6225    0.0000 C   0  0  0  0  0  0  0  0  0  0  0  0
   -3.7035   -3.2093    0.0000 C   0  0  0  0  0  0  0  0  0  0  0  0
    0.5409    0.8483    0.0000 C   0  0  0  0  0  0  0  0  0  0  0  0
   -3.7048   -0.7385    0.0000 Br  0  0  0  0  0  0  0  0  0  0  0  0
   -5.8485   -3.6215    0.0000 O   0  0  0  0  0  0  0  0  0  0  0  0
    1.3473    1.0224    0.0000 C   0  0  0  0  0  0  0  0  0  0  0  0
    1.5998    1.8078    0.0000 C   0  0  0  0  0  0  0  0  0  0  0  0
    2.4062    1.9819    0.0000 N   0  0  0  0  0  0  0  0  0  0  0  0
    2.9573    1.3642    0.0000 C   0  0  0  0  0  0  0  0  0  0  0  0
    3.7607    1.5354    0.0000 C   0  0  0  0  0  0  0  0  0  0  0  0
    4.0173    2.3200    0.0000 N   0  0  0  0  0  0  0  0  0  0  0  0
    3.4641    2.9333    0.0000 C   0  0  0  0  0  0  0  0  0  0  0  0
    2.6544    2.7623    0.0000 C   0  0  0  0  0  0  0  0  0  0  0  0
    4.8244    2.4909    0.0000 C   0  0  0  0  0  0  0  0  0  0  0  0
    5.3761    1.8775    0.0000 C   0  0  0  0  0  0  0  0  0  0  0  0
  5  4  1  0
 15 16  2  0
  6  7  1  0
 16 17  1  0
  7  8  1  0
 17 18  2  0
 18 13  1  0
  2 13  1  0
  8  9  2  0
 11 19  1  0
  9  5  1  0
  1 20  1  0
  4  1  2  0
 16 21  1  0
  9 10  1  0
 19 22  1  0
  5  6  2  0
 22 23  1  0
 10 11  1  0
 23 24  1  0
 24 25  1  0
 11 12  2  0
  2  3  2  0
  3  6  1  0
 13 14  2  0
 24 29  1  0
 25 26  1  0
 26 27  1  0
 27 28  1  0
 28 29  1  0
  1  2  1  0
 27 30  1  0
 14 15  1  0
 30 31  1  0
M  END
>  <ACTIVITY>  (62) 
4

$$$$

     RDKit          3D

 28 32  0  0  0  0  0  0  0  0999 V2000
   -2.8522   -7.7957    0.0000 C   0  0  0  0  0  0  0  0  0  0  0  0
   -2.8535   -8.6232    0.0000 C   0  0  0  0  0  0  0  0  0  0  0  0
   -2.1406   -9.0361    0.0000 N   0  0  0  0  0  0  0  0  0  0  0  0
   -2.1425   -7.3829    0.0000 C   0  0  0  0  0  0  0  0  0  0  0  0
   -1.4244   -7.7916    0.0000 C   0  0  0  0  0  0  0  0  0  0  0  0
   -1.4238   -8.6232    0.0000 C   0  0  0  0  0  0  0  0  0  0  0  0
   -0.6329   -8.8797    0.0000 N   0  0  0  0  0  0  0  0  0  0  0  0
   -0.1445   -8.2066    0.0000 N   0  0  0  0  0  0  0  0  0  0  0  0
   -0.6338   -7.5342    0.0000 C   0  0  0  0  0  0  0  0  0  0  0  0
   -0.3794   -6.7495    0.0000 N   0  0  0  0  0  0  0  0  0  0  0  0
    0.4274   -6.5774    0.0000 C   0  0  0  0  0  0  0  0  0  0  0  0
    0.6818   -5.7927    0.0000 C   0  0  0  0  0  0  0  0  0  0  0  0
    0.9798   -7.1902    0.0000 O   0  0  0  0  0  0  0  0  0  0  0  0
   -3.5657   -9.0328    0.0000 C   0  0  0  0  0  0  0  0  0  0  0  0
   -4.2799   -8.6175    0.0000 C   0  0  0  0  0  0  0  0  0  0  0  0
   -4.9944   -9.0284    0.0000 C   0  0  0  0  0  0  0  0  0  0  0  0
   -4.9961   -9.8542    0.0000 C   0  0  0  0  0  0  0  0  0  0  0  0
   -4.2771  -10.2674    0.0000 C   0  0  0  0  0  0  0  0  0  0  0  0
   -3.5656   -9.8544    0.0000 C   0  0  0  0  0  0  0  0  0  0  0  0
    1.2890   -5.2395    0.0000 C   0  0  0  0  0  0  0  0  0  0  0  0
    0.5042   -4.9851    0.0000 C   0  0  0  0  0  0  0  0  0  0  0  0
   -5.7105  -10.2665    0.0000 O   0  0  0  0  0  0  0  0  0  0  0  0
   -3.5668   -7.3843    0.0000 C   0  0  0  0  0  0  0  0  0  0  0  0
   -3.5662   -6.5583    0.0000 C   0  0  0  0  0  0  0  0  0  0  0  0
   -4.2801   -6.1465    0.0000 C   0  0  0  0  0  0  0  0  0  0  0  0
   -4.9952   -6.5596    0.0000 C   0  0  0  0  0  0  0  0  0  0  0  0
   -4.9918   -7.3888    0.0000 C   0  0  0  0  0  0  0  0  0  0  0  0
   -4.2773   -7.7969    0.0000 C   0  0  0  0  0  0  0  0  0  0  0  0
  3  6  2  0
  1  2  2  0
 14 15  2  0
  5  4  2  0
 15 16  1  0
  6  7  1  0
 16 17  2  0
  7  8  1  0
 17 18  1  0
  8  9  2  0
 18 19  2  0
 19 14  1  0
  2 14  1  0
 20 12  1  0
 21 20  1  0
 12 21  1  0
  9  5  1  0
  4  1  1  0
  9 10  1  0
 17 22  1  0
  5  6  1  0
 10 11  1  0
 23 24  2  0
 24 25  1  0
 11 12  1  0
 25 26  2  0
  2  3  1  0
 26 27  1  0
 11 13  2  0
 27 28  2  0
 28 23  1  0
  1 23  1  0
M  END
>  <ACTIVITY>  (63) 
24

$$$$

     RDKit          2D

 23 26  0  0  0  0  0  0  0  0999 V2000
    5.8392   -5.7483    0.0000 C   0  0  0  0  0  0  0  0  0  0  0  0
    5.8466   -6.5751    0.0000 C   0  0  0  0  0  0  0  0  0  0  0  0
    6.5653   -6.9803    0.0000 C   0  0  0  0  0  0  0  0  0  0  0  0
    6.5463   -5.3284    0.0000 N   0  0  0  0  0  0  0  0  0  0  0  0
    7.2655   -5.7297    0.0000 C   0  0  0  0  0  0  0  0  0  0  0  0
    7.2744   -6.5556    0.0000 C   0  0  0  0  0  0  0  0  0  0  0  0
    8.0626   -6.8025    0.0000 C   0  0  0  0  0  0  0  0  0  0  0  0
    8.5409   -6.1291    0.0000 N   0  0  0  0  0  0  0  0  0  0  0  0
    8.0482   -5.4662    0.0000 N   0  0  0  0  0  0  0  0  0  0  0  0
    8.3265   -7.5836    0.0000 N   0  0  0  0  0  0  0  0  0  0  0  0
    9.1510   -7.5858    0.0000 C   0  0  0  0  0  0  0  0  0  0  0  0
    9.5652   -6.8728    0.0000 O   0  0  0  0  0  0  0  0  0  0  0  0
    9.5614   -8.3008    0.0000 C   0  0  0  0  0  0  0  0  0  0  0  0
    5.1212   -5.3447    0.0000 C   0  0  0  0  0  0  0  0  0  0  0  0
    5.1138   -4.5191    0.0000 C   0  0  0  0  0  0  0  0  0  0  0  0
    4.3962   -4.1146    0.0000 C   0  0  0  0  0  0  0  0  0  0  0  0
    3.6857   -4.5345    0.0000 C   0  0  0  0  0  0  0  0  0  0  0  0
    3.6971   -5.3632    0.0000 C   0  0  0  0  0  0  0  0  0  0  0  0
    4.4152   -5.7640    0.0000 C   0  0  0  0  0  0  0  0  0  0  0  0
    9.5612   -9.1247    0.0000 C   0  0  0  0  0  0  0  0  0  0  0  0
   10.2763   -8.7144    0.0000 C   0  0  0  0  0  0  0  0  0  0  0  0
    2.9667   -4.1309    0.0000 O   0  0  0  0  0  0  0  0  0  0  0  0
    2.9890   -5.7856    0.0000 Cl  0  0  0  0  0  0  0  0  0  0  0  0
 10 11  1  0
 11 12  2  0
  2  3  2  0
 11 13  1  0
  3  6  1  0
  1  2  1  0
 14 15  2  0
  5  4  1  0
 15 16  1  0
  6  7  1  0
 16 17  2  0
  7  8  2  0
 17 18  1  0
  8  9  1  0
 18 19  2  0
 19 14  1  0
  1 14  1  0
 20 13  1  0
 21 20  1  0
 13 21  1  0
  9  5  1  0
  4  1  2  0
  7 10  1  0
 17 22  1  0
  5  6  2  0
 18 23  1  0
M  END
>  <ACTIVITY>  (64) 
7

$$$$

     RDKit          3D

 23 26  0  0  0  0  0  0  0  0999 V2000
    7.3544   -9.5465    0.0000 C   0  0  0  0  0  0  0  0  0  0  0  0
    7.3530  -10.3741    0.0000 C   0  0  0  0  0  0  0  0  0  0  0  0
    8.0660  -10.7871    0.0000 N   0  0  0  0  0  0  0  0  0  0  0  0
    8.0640   -9.1338    0.0000 C   0  0  0  0  0  0  0  0  0  0  0  0
    8.7821   -9.5426    0.0000 C   0  0  0  0  0  0  0  0  0  0  0  0
    8.7826  -10.3741    0.0000 C   0  0  0  0  0  0  0  0  0  0  0  0
    9.5737  -10.6307    0.0000 N   0  0  0  0  0  0  0  0  0  0  0  0
   10.0621   -9.9575    0.0000 N   0  0  0  0  0  0  0  0  0  0  0  0
    9.5728   -9.2852    0.0000 C   0  0  0  0  0  0  0  0  0  0  0  0
    9.8273   -8.5004    0.0000 N   0  0  0  0  0  0  0  0  0  0  0  0
   10.6341   -8.3284    0.0000 C   0  0  0  0  0  0  0  0  0  0  0  0
   11.1865   -8.9410    0.0000 O   0  0  0  0  0  0  0  0  0  0  0  0
    6.6407  -10.7838    0.0000 C   0  0  0  0  0  0  0  0  0  0  0  0
    5.9266  -10.3685    0.0000 C   0  0  0  0  0  0  0  0  0  0  0  0
    5.2121  -10.7793    0.0000 C   0  0  0  0  0  0  0  0  0  0  0  0
    5.2104  -11.6051    0.0000 C   0  0  0  0  0  0  0  0  0  0  0  0
    5.9293  -12.0185    0.0000 C   0  0  0  0  0  0  0  0  0  0  0  0
    6.6409  -11.6053    0.0000 C   0  0  0  0  0  0  0  0  0  0  0  0
    4.4959  -12.0176    0.0000 O   0  0  0  0  0  0  0  0  0  0  0  0
    5.9310  -12.8434    0.0000 Br  0  0  0  0  0  0  0  0  0  0  0  0
   10.8829   -7.5428    0.0000 C   0  0  0  0  0  0  0  0  0  0  0  0
   11.4955   -6.9903    0.0000 C   0  0  0  0  0  0  0  0  0  0  0  0
   10.7108   -6.7360    0.0000 C   0  0  0  0  0  0  0  0  0  0  0  0
 10 11  1  0
 11 12  2  0
  2  3  1  0
  3  6  2  0
 13 14  2  0
  1  2  2  0
 14 15  1  0
  5  4  2  0
 15 16  2  0
  6  7  1  0
 16 17  1  0
  7  8  1  0
 17 18  2  0
 18 13  1  0
  2 13  1  0
  8  9  2  0
 16 19  1  0
  9  5  1  0
 17 20  1  0
 22 21  1  0
 23 22  1  0
 21 23  1  0
  4  1  1  0
  9 10  1  0
  5  6  1  0
 11 21  1  0
M  END
>  <ACTIVITY>  (65) 
5

$$$$

     RDKit          3D

 22 25  0  0  0  0  0  0  0  0999 V2000
   -3.1134  -23.4053    0.0000 C   0  0  0  0  0  0  0  0  0  0  0  0
   -3.1148  -24.2329    0.0000 C   0  0  0  0  0  0  0  0  0  0  0  0
   -2.4018  -24.6458    0.0000 N   0  0  0  0  0  0  0  0  0  0  0  0
   -2.4038  -22.9926    0.0000 C   0  0  0  0  0  0  0  0  0  0  0  0
   -1.6856  -23.4013    0.0000 C   0  0  0  0  0  0  0  0  0  0  0  0
   -1.6851  -24.2329    0.0000 C   0  0  0  0  0  0  0  0  0  0  0  0
   -0.8941  -24.4894    0.0000 N   0  0  0  0  0  0  0  0  0  0  0  0
   -0.4058  -23.8162    0.0000 N   0  0  0  0  0  0  0  0  0  0  0  0
   -0.8950  -23.1440    0.0000 C   0  0  0  0  0  0  0  0  0  0  0  0
   -0.6406  -22.3592    0.0000 N   0  0  0  0  0  0  0  0  0  0  0  0
    0.1662  -22.1871    0.0000 C   0  0  0  0  0  0  0  0  0  0  0  0
    0.4206  -21.4025    0.0000 C   0  0  0  0  0  0  0  0  0  0  0  0
    0.7186  -22.7998    0.0000 O   0  0  0  0  0  0  0  0  0  0  0  0
   -3.8270  -24.6425    0.0000 C   0  0  0  0  0  0  0  0  0  0  0  0
   -4.5411  -24.2273    0.0000 C   0  0  0  0  0  0  0  0  0  0  0  0
   -5.2556  -24.6380    0.0000 C   0  0  0  0  0  0  0  0  0  0  0  0
   -5.2573  -25.4638    0.0000 C   0  0  0  0  0  0  0  0  0  0  0  0
   -4.5384  -25.8772    0.0000 C   0  0  0  0  0  0  0  0  0  0  0  0
   -3.8268  -25.4640    0.0000 C   0  0  0  0  0  0  0  0  0  0  0  0
    1.0278  -20.8491    0.0000 C   0  0  0  0  0  0  0  0  0  0  0  0
    0.2430  -20.5948    0.0000 C   0  0  0  0  0  0  0  0  0  0  0  0
   -5.9717  -25.8763    0.0000 O   0  0  0  0  0  0  0  0  0  0  0  0
  5  6  1  0
 10 11  1  0
 11 12  1  0
  2  3  1  0
 11 13  2  0
  3  6  2  0
  1  2  2  0
 14 15  2  0
  5  4  2  0
 15 16  1  0
  6  7  1  0
 16 17  2  0
  7  8  1  0
 17 18  1  0
  8  9  2  0
 18 19  2  0
 19 14  1  0
  2 14  1  0
 20 12  1  0
 21 20  1  0
 12 21  1  0
  9  5  1  0
  4  1  1  0
  9 10  1  0
 17 22  1  0
M  END
>  <ACTIVITY>  (66) 
8

$$$$

     RDKit          2D

 23 26  0  0  0  0  0  0  0  0999 V2000
    4.9279   -0.5396    0.0000 O   0  0  0  0  0  0  0  0  0  0  0  0
    4.2135   -0.1271    0.0000 C   0  0  0  0  0  0  0  0  0  0  0  0
    3.4990   -0.5396    0.0000 C   0  0  0  0  0  0  0  0  0  0  0  0
    2.7845   -0.1271    0.0000 C   0  0  0  0  0  0  0  0  0  0  0  0
    2.7845    0.6979    0.0000 C   0  0  0  0  0  0  0  0  0  0  0  0
    3.4990    1.1104    0.0000 C   0  0  0  0  0  0  0  0  0  0  0  0
    4.2135    0.6979    0.0000 C   0  0  0  0  0  0  0  0  0  0  0  0
    2.0701    1.1104    0.0000 C   0  0  0  0  0  0  0  0  0  0  0  0
    1.3556    0.6979    0.0000 N   0  0  0  0  0  0  0  0  0  0  0  0
    0.6411    1.1104    0.0000 C   0  0  0  0  0  0  0  0  0  0  0  0
   -0.1435    0.8555    0.0000 N   0  0  0  0  0  0  0  0  0  0  0  0
   -0.6284    1.5229    0.0000 N   0  0  0  0  0  0  0  0  0  0  0  0
   -0.1435    2.1904    0.0000 C   0  0  0  0  0  0  0  0  0  0  0  0
   -0.3984    2.9750    0.0000 N   0  0  0  0  0  0  0  0  0  0  0  0
   -1.2054    3.1465    0.0000 C   0  0  0  0  0  0  0  0  0  0  0  0
   -1.7575    2.5334    0.0000 O   0  0  0  0  0  0  0  0  0  0  0  0
   -1.4604    3.9312    0.0000 C   0  0  0  0  0  0  0  0  0  0  0  0
   -2.0735    4.4832    0.0000 C   0  0  0  0  0  0  0  0  0  0  0  0
   -1.2888    4.7381    0.0000 C   0  0  0  0  0  0  0  0  0  0  0  0
    0.6411    1.9354    0.0000 C   0  0  0  0  0  0  0  0  0  0  0  0
    1.3556    2.3479    0.0000 C   0  0  0  0  0  0  0  0  0  0  0  0
    2.0701    1.9354    0.0000 C   0  0  0  0  0  0  0  0  0  0  0  0
    2.7845    2.3479    0.0000 Br  0  0  0  0  0  0  0  0  0  0  0  0
  1  2  1  0
  2  3  2  0
  3  4  1  0
  4  5  2  0
  5  6  1  0
  6  7  2  0
  2  7  1  0
  5  8  1  0
  8  9  2  0
  9 10  1  0
 10 11  1  0
 11 12  1  0
 12 13  2  0
 13 14  1  0
 14 15  1  0
 15 16  2  0
 15 17  1  0
 17 18  1  0
 18 19  1  0
 17 19  1  0
 13 20  1  0
 10 20  2  0
 20 21  1  0
 21 22  2  0
  8 22  1  0
 22 23  1  0
M  END
>  <ACTIVITY>  (67) 
0.8

$$$$

     RDKit          3D

 22 25  0  0  0  0  0  0  0  0999 V2000
   13.4129  -15.3530    0.0000 C   0  0  0  0  0  0  0  0  0  0  0  0
   13.4115  -16.1806    0.0000 C   0  0  0  0  0  0  0  0  0  0  0  0
   14.1245  -16.5934    0.0000 N   0  0  0  0  0  0  0  0  0  0  0  0
   14.1225  -14.9402    0.0000 C   0  0  0  0  0  0  0  0  0  0  0  0
   14.8407  -15.3491    0.0000 C   0  0  0  0  0  0  0  0  0  0  0  0
   14.8412  -16.1806    0.0000 C   0  0  0  0  0  0  0  0  0  0  0  0
   15.6322  -16.4370    0.0000 N   0  0  0  0  0  0  0  0  0  0  0  0
   16.1205  -15.7639    0.0000 N   0  0  0  0  0  0  0  0  0  0  0  0
   15.6313  -15.0916    0.0000 C   0  0  0  0  0  0  0  0  0  0  0  0
   15.8857  -14.3069    0.0000 N   0  0  0  0  0  0  0  0  0  0  0  0
   16.6925  -14.1349    0.0000 C   0  0  0  0  0  0  0  0  0  0  0  0
   16.9469  -13.3501    0.0000 C   0  0  0  0  0  0  0  0  0  0  0  0
   17.2449  -14.7475    0.0000 O   0  0  0  0  0  0  0  0  0  0  0  0
   12.6993  -16.5902    0.0000 C   0  0  0  0  0  0  0  0  0  0  0  0
   11.9852  -16.1750    0.0000 C   0  0  0  0  0  0  0  0  0  0  0  0
   11.2707  -16.5857    0.0000 C   0  0  0  0  0  0  0  0  0  0  0  0
   11.2690  -17.4115    0.0000 C   0  0  0  0  0  0  0  0  0  0  0  0
   11.9879  -17.8249    0.0000 C   0  0  0  0  0  0  0  0  0  0  0  0
   12.6995  -17.4117    0.0000 C   0  0  0  0  0  0  0  0  0  0  0  0
   17.5541  -12.7968    0.0000 C   0  0  0  0  0  0  0  0  0  0  0  0
   16.7693  -12.5424    0.0000 C   0  0  0  0  0  0  0  0  0  0  0  0
   12.6981  -14.9411    0.0000 Br  0  0  0  0  0  0  0  0  0  0  0  0
  5  6  1  0
 10 11  1  0
 11 12  1  0
  2  3  1  0
 11 13  2  0
  3  6  2  0
  1  2  2  0
 14 15  2  0
  5  4  2  0
 15 16  1  0
  6  7  1  0
 16 17  2  0
  7  8  1  0
 17 18  1  0
  8  9  2  0
 18 19  2  0
 19 14  1  0
  2 14  1  0
 20 12  1  0
 21 20  1  0
 12 21  1  0
  9  5  1  0
  4  1  1  0
  9 10  1  0
  1 22  1  0
M  END
>  <ACTIVITY>  (68) 
75

$$$$

     RDKit          3D

 30 33  0  0  0  0  0  0  0  0999 V2000
   14.6556   -2.8324    0.0000 C   0  0  0  0  0  0  0  0  0  0  0  0
   14.6543   -3.6599    0.0000 N   0  0  0  0  0  0  0  0  0  0  0  0
   15.3673   -4.0729    0.0000 N   0  0  0  0  0  0  0  0  0  0  0  0
   15.3653   -2.4196    0.0000 C   0  0  0  0  0  0  0  0  0  0  0  0
   16.0834   -2.8284    0.0000 C   0  0  0  0  0  0  0  0  0  0  0  0
   16.0839   -3.6599    0.0000 C   0  0  0  0  0  0  0  0  0  0  0  0
   16.8750   -3.9165    0.0000 N   0  0  0  0  0  0  0  0  0  0  0  0
   17.3634   -3.2434    0.0000 N   0  0  0  0  0  0  0  0  0  0  0  0
   16.8742   -2.5710    0.0000 C   0  0  0  0  0  0  0  0  0  0  0  0
   17.1286   -1.7862    0.0000 N   0  0  0  0  0  0  0  0  0  0  0  0
   17.9354   -1.6141    0.0000 C   0  0  0  0  0  0  0  0  0  0  0  0
   18.1898   -0.8294    0.0000 C   0  0  0  0  0  0  0  0  0  0  0  0
   18.4878   -2.2269    0.0000 O   0  0  0  0  0  0  0  0  0  0  0  0
   18.9967   -0.6573    0.0000 C   0  0  0  0  0  0  0  0  0  0  0  0
   19.2511    0.1275    0.0000 C   0  0  0  0  0  0  0  0  0  0  0  0
   13.9410   -2.4210    0.0000 C   0  0  0  0  0  0  0  0  0  0  0  0
   13.9416   -1.5950    0.0000 C   0  0  0  0  0  0  0  0  0  0  0  0
   13.2276   -1.1831    0.0000 C   0  0  0  0  0  0  0  0  0  0  0  0
   12.5125   -1.5963    0.0000 C   0  0  0  0  0  0  0  0  0  0  0  0
   12.5159   -2.4256    0.0000 C   0  0  0  0  0  0  0  0  0  0  0  0
   13.2305   -2.8336    0.0000 C   0  0  0  0  0  0  0  0  0  0  0  0
   20.0579    0.2995    0.0000 C   0  0  0  0  0  0  0  0  0  0  0  0
   20.3123    1.0842    0.0000 N   0  0  0  0  0  0  0  0  0  0  0  0
   21.1194    1.2502    0.0000 C   0  0  0  0  0  0  0  0  0  0  0  0
   21.3746    2.0310    0.0000 C   0  0  0  0  0  0  0  0  0  0  0  0
   20.8251    2.6469    0.0000 N   0  0  0  0  0  0  0  0  0  0  0  0
   20.0169    2.4765    0.0000 C   0  0  0  0  0  0  0  0  0  0  0  0
   19.7583    1.6903    0.0000 C   0  0  0  0  0  0  0  0  0  0  0  0
   21.0825    3.4306    0.0000 C   0  0  0  0  0  0  0  0  0  0  0  0
   21.8900    3.5997    0.0000 C   0  0  0  0  0  0  0  0  0  0  0  0
  1  2  2  0
 14 15  1  0
  5  4  2  0
  6  7  1  0
 16 17  2  0
  7  8  1  0
 17 18  1  0
  8  9  2  0
 18 19  2  0
  9  5  1  0
 19 20  1  0
  4  1  1  0
 20 21  2  0
 21 16  1  0
  1 16  1  0
  9 10  1  0
 15 22  1  0
  5  6  1  0
 22 23  1  0
 23 24  1  0
 10 11  1  0
 11 12  1  0
  2  3  1  0
 11 13  2  0
 23 28  1  0
 24 25  1  0
 25 26  1  0
 26 27  1  0
 27 28  1  0
  3  6  2  0
 26 29  1  0
 12 14  1  0
 29 30  1  0
M  END
>  <ACTIVITY>  (69) 
5

$$$$

     RDKit          2D

 25 28  0  0  0  0  0  0  0  0999 V2000
    2.5364   -3.3449    0.0000 C   0  0  0  0  0  0  0  0  0  0  0  0
    2.7913   -2.5602    0.0000 N   0  0  0  0  0  0  0  0  0  0  0  0
    2.2393   -1.9472    0.0000 C   0  0  0  0  0  0  0  0  0  0  0  0
    2.4942   -1.1625    0.0000 C   0  0  0  0  0  0  0  0  0  0  0  0
    3.3012   -0.9910    0.0000 C   0  0  0  0  0  0  0  0  0  0  0  0
    3.8532   -1.6041    0.0000 C   0  0  0  0  0  0  0  0  0  0  0  0
    3.5983   -2.3887    0.0000 C   0  0  0  0  0  0  0  0  0  0  0  0
    3.5561   -0.2064    0.0000 C   0  0  0  0  0  0  0  0  0  0  0  0
    3.0041    0.4067    0.0000 O   0  0  0  0  0  0  0  0  0  0  0  0
    4.3631   -0.0349    0.0000 N   0  0  0  0  0  0  0  0  0  0  0  0
    4.6180    0.7498    0.0000 C   0  0  0  0  0  0  0  0  0  0  0  0
    4.1331    1.4172    0.0000 N   0  0  0  0  0  0  0  0  0  0  0  0
    4.6180    2.0846    0.0000 N   0  0  0  0  0  0  0  0  0  0  0  0
    5.4027    1.8297    0.0000 C   0  0  0  0  0  0  0  0  0  0  0  0
    6.1171    2.2422    0.0000 N   0  0  0  0  0  0  0  0  0  0  0  0
    6.8316    1.8297    0.0000 N   0  0  0  0  0  0  0  0  0  0  0  0
    6.8316    1.0047    0.0000 C   0  0  0  0  0  0  0  0  0  0  0  0
    6.1171    0.5922    0.0000 C   0  0  0  0  0  0  0  0  0  0  0  0
    5.4027    1.0047    0.0000 C   0  0  0  0  0  0  0  0  0  0  0  0
    7.5461    0.5922    0.0000 C   0  0  0  0  0  0  0  0  0  0  0  0
    8.2606    1.0047    0.0000 C   0  0  0  0  0  0  0  0  0  0  0  0
    8.9750    0.5922    0.0000 C   0  0  0  0  0  0  0  0  0  0  0  0
    8.9750   -0.2328    0.0000 C   0  0  0  0  0  0  0  0  0  0  0  0
    8.2606   -0.6453    0.0000 C   0  0  0  0  0  0  0  0  0  0  0  0
    7.5461   -0.2328    0.0000 C   0  0  0  0  0  0  0  0  0  0  0  0
  1  2  1  0
  2  3  1  0
  3  4  1  0
  4  5  1  0
  5  6  1  0
  6  7  1  0
  2  7  1  0
  5  8  1  0
  8  9  2  0
  8 10  1  0
 10 11  1  0
 11 12  2  0
 12 13  1  0
 13 14  1  0
 14 15  2  0
 15 16  1  0
 16 17  2  0
 17 18  1  0
 18 19  2  0
 11 19  1  0
 14 19  1  0
 17 20  1  0
 20 21  2  0
 21 22  1  0
 22 23  2  0
 23 24  1  0
 24 25  2  0
 20 25  1  0
M  END
>  <ACTIVITY>  (70) 
9

$$$$

     RDKit          3D

 27 30  0  0  0  0  0  0  0  0999 V2000
   -3.6084   -1.8699    0.0000 C   0  0  0  0  0  0  0  0  0  0  0  0
   -3.6097   -2.6974    0.0000 N   0  0  0  0  0  0  0  0  0  0  0  0
   -2.8968   -3.1103    0.0000 N   0  0  0  0  0  0  0  0  0  0  0  0
   -2.8988   -1.4571    0.0000 C   0  0  0  0  0  0  0  0  0  0  0  0
   -2.1806   -1.8658    0.0000 C   0  0  0  0  0  0  0  0  0  0  0  0
   -2.1801   -2.6974    0.0000 C   0  0  0  0  0  0  0  0  0  0  0  0
   -1.3891   -2.9539    0.0000 N   0  0  0  0  0  0  0  0  0  0  0  0
   -0.9007   -2.2808    0.0000 N   0  0  0  0  0  0  0  0  0  0  0  0
   -1.3900   -1.6084    0.0000 C   0  0  0  0  0  0  0  0  0  0  0  0
   -1.1356   -0.8237    0.0000 N   0  0  0  0  0  0  0  0  0  0  0  0
   -0.3288   -0.6516    0.0000 C   0  0  0  0  0  0  0  0  0  0  0  0
   -0.0744    0.1331    0.0000 C   0  0  0  0  0  0  0  0  0  0  0  0
    0.2236   -1.2644    0.0000 O   0  0  0  0  0  0  0  0  0  0  0  0
    0.7324    0.3051    0.0000 C   0  0  0  0  0  0  0  0  0  0  0  0
    0.9869    1.0899    0.0000 C   0  0  0  0  0  0  0  0  0  0  0  0
   -4.3230   -1.4585    0.0000 C   0  0  0  0  0  0  0  0  0  0  0  0
   -4.3224   -0.6325    0.0000 C   0  0  0  0  0  0  0  0  0  0  0  0
   -5.0364   -0.2206    0.0000 C   0  0  0  0  0  0  0  0  0  0  0  0
   -5.7514   -0.6338    0.0000 C   0  0  0  0  0  0  0  0  0  0  0  0
   -5.7480   -1.4630    0.0000 C   0  0  0  0  0  0  0  0  0  0  0  0
   -5.0335   -1.8711    0.0000 C   0  0  0  0  0  0  0  0  0  0  0  0
    1.7937    1.2619    0.0000 N   0  0  0  0  0  0  0  0  0  0  0  0
    2.3420    0.6483    0.0000 C   0  0  0  0  0  0  0  0  0  0  0  0
    3.1457    0.8177    0.0000 C   0  0  0  0  0  0  0  0  0  0  0  0
    3.4043    1.6014    0.0000 O   0  0  0  0  0  0  0  0  0  0  0  0
    2.8527    2.2161    0.0000 C   0  0  0  0  0  0  0  0  0  0  0  0
    2.0426    2.0471    0.0000 C   0  0  0  0  0  0  0  0  0  0  0  0
 11 13  2  0
  3  6  2  0
 12 14  1  0
  1  2  2  0
 14 15  1  0
  5  4  2  0
  6  7  1  0
 16 17  2  0
  7  8  1  0
 17 18  1  0
  8  9  2  0
 18 19  2  0
  9  5  1  0
 19 20  1  0
  4  1  1  0
 20 21  2  0
 21 16  1  0
  1 16  1  0
  9 10  1  0
 15 22  1  0
 22 23  1  0
  5  6  1  0
 10 11  1  0
 11 12  1  0
  2  3  1  0
 22 27  1  0
 23 24  1  0
 24 25  1  0
 25 26  1  0
 26 27  1  0
M  END
>  <ACTIVITY>  (71) 
5

$$$$

     RDKit          3D

 29 32  0  0  0  0  0  0  0  0999 V2000
   13.8128  -27.2620    0.0000 C   0  0  0  0  0  0  0  0  0  0  0  0
   13.8115  -28.0897    0.0000 N   0  0  0  0  0  0  0  0  0  0  0  0
   14.5245  -28.5025    0.0000 N   0  0  0  0  0  0  0  0  0  0  0  0
   14.5225  -26.8492    0.0000 C   0  0  0  0  0  0  0  0  0  0  0  0
   15.2407  -27.2581    0.0000 C   0  0  0  0  0  0  0  0  0  0  0  0
   15.2413  -28.0897    0.0000 C   0  0  0  0  0  0  0  0  0  0  0  0
   16.0323  -28.3461    0.0000 N   0  0  0  0  0  0  0  0  0  0  0  0
   16.5207  -27.6730    0.0000 N   0  0  0  0  0  0  0  0  0  0  0  0
   16.0314  -27.0006    0.0000 C   0  0  0  0  0  0  0  0  0  0  0  0
   16.2859  -26.2158    0.0000 N   0  0  0  0  0  0  0  0  0  0  0  0
   17.0927  -26.0438    0.0000 C   0  0  0  0  0  0  0  0  0  0  0  0
   17.3471  -25.2589    0.0000 C   0  0  0  0  0  0  0  0  0  0  0  0
   17.6451  -26.6565    0.0000 O   0  0  0  0  0  0  0  0  0  0  0  0
   18.1540  -25.0869    0.0000 C   0  0  0  0  0  0  0  0  0  0  0  0
   18.4084  -24.3021    0.0000 C   0  0  0  0  0  0  0  0  0  0  0  0
   13.0981  -26.8506    0.0000 C   0  0  0  0  0  0  0  0  0  0  0  0
   13.0988  -26.0245    0.0000 C   0  0  0  0  0  0  0  0  0  0  0  0
   12.3848  -25.6127    0.0000 C   0  0  0  0  0  0  0  0  0  0  0  0
   11.6696  -26.0258    0.0000 C   0  0  0  0  0  0  0  0  0  0  0  0
   11.6730  -26.8551    0.0000 C   0  0  0  0  0  0  0  0  0  0  0  0
   12.3876  -27.2632    0.0000 C   0  0  0  0  0  0  0  0  0  0  0  0
   19.2153  -24.1300    0.0000 N   0  0  0  0  0  0  0  0  0  0  0  0
   19.7637  -24.7437    0.0000 C   0  0  0  0  0  0  0  0  0  0  0  0
   20.5674  -24.5744    0.0000 C   0  0  0  0  0  0  0  0  0  0  0  0
   20.8261  -23.7905    0.0000 N   0  0  0  0  0  0  0  0  0  0  0  0
   20.2744  -23.1757    0.0000 C   0  0  0  0  0  0  0  0  0  0  0  0
   19.4642  -23.3448    0.0000 C   0  0  0  0  0  0  0  0  0  0  0  0
   21.6336  -23.6215    0.0000 C   0  0  0  0  0  0  0  0  0  0  0  0
   22.1837  -24.2363    0.0000 C   0  0  0  0  0  0  0  0  0  0  0  0
 12 14  1  0
  1  2  2  0
 14 15  1  0
  5  4  2  0
  6  7  1  0
 16 17  2  0
  7  8  1  0
 17 18  1  0
  8  9  2  0
 18 19  2  0
  9  5  1  0
 19 20  1  0
  4  1  1  0
 20 21  2  0
 21 16  1  0
  1 16  1  0
  9 10  1  0
 15 22  1  0
 22 23  1  0
  5  6  1  0
 10 11  1  0
 11 12  1  0
  2  3  1  0
 22 27  1  0
 23 24  1  0
 24 25  1  0
 25 26  1  0
 26 27  1  0
 11 13  2  0
 25 28  1  0
  3  6  2  0
 28 29  1  0
M  END
>  <ACTIVITY>  (72) 
7

$$$$

     RDKit          3D

 26 29  0  0  0  0  0  0  0  0999 V2000
    4.6091  -26.6420    0.0000 C   0  0  0  0  0  0  0  0  0  0  0  0
    4.6079  -27.4696    0.0000 N   0  0  0  0  0  0  0  0  0  0  0  0
    5.3208  -27.8825    0.0000 N   0  0  0  0  0  0  0  0  0  0  0  0
    5.3188  -26.2292    0.0000 C   0  0  0  0  0  0  0  0  0  0  0  0
    6.0369  -26.6381    0.0000 C   0  0  0  0  0  0  0  0  0  0  0  0
    6.0375  -27.4696    0.0000 C   0  0  0  0  0  0  0  0  0  0  0  0
    6.8286  -27.7261    0.0000 N   0  0  0  0  0  0  0  0  0  0  0  0
    7.3170  -27.0530    0.0000 N   0  0  0  0  0  0  0  0  0  0  0  0
    6.8277  -26.3806    0.0000 C   0  0  0  0  0  0  0  0  0  0  0  0
    7.0820  -25.5959    0.0000 N   0  0  0  0  0  0  0  0  0  0  0  0
    7.8889  -25.4238    0.0000 C   0  0  0  0  0  0  0  0  0  0  0  0
    8.1433  -24.6390    0.0000 C   0  0  0  0  0  0  0  0  0  0  0  0
    8.4414  -26.0365    0.0000 O   0  0  0  0  0  0  0  0  0  0  0  0
    8.9502  -24.4670    0.0000 C   0  0  0  0  0  0  0  0  0  0  0  0
    9.2045  -23.6822    0.0000 C   0  0  0  0  0  0  0  0  0  0  0  0
    3.8944  -26.2306    0.0000 C   0  0  0  0  0  0  0  0  0  0  0  0
    3.8951  -25.4046    0.0000 C   0  0  0  0  0  0  0  0  0  0  0  0
    3.1812  -24.9927    0.0000 C   0  0  0  0  0  0  0  0  0  0  0  0
    2.4661  -25.4059    0.0000 C   0  0  0  0  0  0  0  0  0  0  0  0
    2.4694  -26.2352    0.0000 C   0  0  0  0  0  0  0  0  0  0  0  0
    3.1840  -26.6432    0.0000 C   0  0  0  0  0  0  0  0  0  0  0  0
   10.0113  -23.5101    0.0000 N   0  0  0  0  0  0  0  0  0  0  0  0
   10.6256  -24.0583    0.0000 C   0  0  0  0  0  0  0  0  0  0  0  0
   11.3397  -23.6454    0.0000 C   0  0  0  0  0  0  0  0  0  0  0  0
   11.1676  -22.8385    0.0000 C   0  0  0  0  0  0  0  0  0  0  0  0
   10.3472  -22.7530    0.0000 C   0  0  0  0  0  0  0  0  0  0  0  0
  2  3  2  0
 11 13  2  0
  3  6  1  0
 12 14  1  0
  1  2  1  0
 14 15  1  0
  5  4  1  0
  6  7  1  0
 16 17  2  0
  7  8  1  0
 17 18  1  0
  8  9  2  0
 18 19  2  0
  9  5  1  0
 19 20  1  0
  4  1  2  0
 20 21  2  0
 21 16  1  0
  1 16  1  0
  9 10  1  0
 15 22  1  0
 22 23  1  0
  5  6  2  0
 10 11  1  0
 11 12  1  0
 23 24  1  0
 24 25  1  0
 25 26  1  0
 26 22  1  0
M  END
>  <ACTIVITY>  (73) 
11

$$$$

     RDKit          3D

 24 26  0  0  0  0  0  0  0  0999 V2000
   -4.2823  -26.2295    0.0000 C   0  0  0  0  0  0  0  0  0  0  0  0
   -4.2836  -27.0571    0.0000 N   0  0  0  0  0  0  0  0  0  0  0  0
   -3.5706  -27.4699    0.0000 N   0  0  0  0  0  0  0  0  0  0  0  0
   -3.5726  -25.8166    0.0000 C   0  0  0  0  0  0  0  0  0  0  0  0
   -2.8544  -26.2255    0.0000 C   0  0  0  0  0  0  0  0  0  0  0  0
   -2.8538  -27.0571    0.0000 C   0  0  0  0  0  0  0  0  0  0  0  0
   -2.0629  -27.3135    0.0000 N   0  0  0  0  0  0  0  0  0  0  0  0
   -1.5745  -26.6404    0.0000 N   0  0  0  0  0  0  0  0  0  0  0  0
   -2.0637  -25.9680    0.0000 C   0  0  0  0  0  0  0  0  0  0  0  0
   -1.8093  -25.1833    0.0000 N   0  0  0  0  0  0  0  0  0  0  0  0
   -1.0025  -25.0112    0.0000 C   0  0  0  0  0  0  0  0  0  0  0  0
   -0.7481  -24.2264    0.0000 C   0  0  0  0  0  0  0  0  0  0  0  0
   -0.4501  -25.6239    0.0000 O   0  0  0  0  0  0  0  0  0  0  0  0
    0.0587  -24.0544    0.0000 C   0  0  0  0  0  0  0  0  0  0  0  0
    0.3132  -23.2697    0.0000 C   0  0  0  0  0  0  0  0  0  0  0  0
   -4.9969  -25.8181    0.0000 C   0  0  0  0  0  0  0  0  0  0  0  0
   -4.9962  -24.9920    0.0000 C   0  0  0  0  0  0  0  0  0  0  0  0
   -5.7102  -24.5802    0.0000 C   0  0  0  0  0  0  0  0  0  0  0  0
   -6.4253  -24.9933    0.0000 C   0  0  0  0  0  0  0  0  0  0  0  0
   -6.4219  -25.8226    0.0000 C   0  0  0  0  0  0  0  0  0  0  0  0
   -5.7074  -26.2307    0.0000 C   0  0  0  0  0  0  0  0  0  0  0  0
    1.1200  -23.0975    0.0000 N   0  0  0  0  0  0  0  0  0  0  0  0
    1.3744  -22.3128    0.0000 C   0  0  0  0  0  0  0  0  0  0  0  0
    1.6724  -23.7103    0.0000 C   0  0  0  0  0  0  0  0  0  0  0  0
 11 12  1  0
  2  3  2  0
 11 13  2  0
  3  6  1  0
 12 14  1  0
  1  2  1  0
 14 15  1  0
  5  4  1  0
  6  7  1  0
 16 17  2  0
  7  8  1  0
 17 18  1  0
  8  9  2  0
 18 19  2  0
  9  5  1  0
 19 20  1  0
  4  1  2  0
 20 21  2  0
 21 16  1  0
  1 16  1  0
  9 10  1  0
 15 22  1  0
  5  6  2  0
 22 23  1  0
 10 11  1  0
 22 24  1  0
M  END
>  <ACTIVITY>  (74) 
22

$$$$

     RDKit          3D

 27 30  0  0  0  0  0  0  0  0999 V2000
   13.6697  -18.9602    0.0000 C   0  0  0  0  0  0  0  0  0  0  0  0
   13.6685  -19.7876    0.0000 N   0  0  0  0  0  0  0  0  0  0  0  0
   14.3813  -20.2005    0.0000 N   0  0  0  0  0  0  0  0  0  0  0  0
   14.3794  -18.5473    0.0000 C   0  0  0  0  0  0  0  0  0  0  0  0
   15.0975  -18.9561    0.0000 C   0  0  0  0  0  0  0  0  0  0  0  0
   15.0981  -19.7876    0.0000 C   0  0  0  0  0  0  0  0  0  0  0  0
   15.8891  -20.0441    0.0000 N   0  0  0  0  0  0  0  0  0  0  0  0
   16.3775  -19.3711    0.0000 N   0  0  0  0  0  0  0  0  0  0  0  0
   15.8882  -18.6987    0.0000 C   0  0  0  0  0  0  0  0  0  0  0  0
   16.1426  -17.9140    0.0000 N   0  0  0  0  0  0  0  0  0  0  0  0
   16.9495  -17.7419    0.0000 C   0  0  0  0  0  0  0  0  0  0  0  0
   17.2038  -16.9572    0.0000 C   0  0  0  0  0  0  0  0  0  0  0  0
   17.5019  -18.3546    0.0000 O   0  0  0  0  0  0  0  0  0  0  0  0
   18.0107  -16.7851    0.0000 C   0  0  0  0  0  0  0  0  0  0  0  0
   18.2650  -16.0003    0.0000 C   0  0  0  0  0  0  0  0  0  0  0  0
   12.9550  -18.5488    0.0000 C   0  0  0  0  0  0  0  0  0  0  0  0
   12.9557  -17.7227    0.0000 C   0  0  0  0  0  0  0  0  0  0  0  0
   12.2418  -17.3109    0.0000 C   0  0  0  0  0  0  0  0  0  0  0  0
   11.5268  -17.7240    0.0000 C   0  0  0  0  0  0  0  0  0  0  0  0
   11.5301  -18.5533    0.0000 C   0  0  0  0  0  0  0  0  0  0  0  0
   12.2446  -18.9614    0.0000 C   0  0  0  0  0  0  0  0  0  0  0  0
   14.3722  -17.7244    0.0000 C   0  0  0  0  0  0  0  0  0  0  0  0
   15.0863  -17.3091    0.0000 C   0  0  0  0  0  0  0  0  0  0  0  0
   15.0828  -16.4850    0.0000 C   0  0  0  0  0  0  0  0  0  0  0  0
   14.3659  -16.0750    0.0000 C   0  0  0  0  0  0  0  0  0  0  0  0
   13.6511  -16.4953    0.0000 C   0  0  0  0  0  0  0  0  0  0  0  0
   13.6581  -17.3181    0.0000 C   0  0  0  0  0  0  0  0  0  0  0  0
 11 13  2  0
  3  6  2  0
 12 14  1  0
  1  2  2  0
 14 15  1  0
  5  4  2  0
  6  7  1  0
 16 17  2  0
  7  8  1  0
 17 18  1  0
  8  9  2  0
 18 19  2  0
  9  5  1  0
 19 20  1  0
  4  1  1  0
 20 21  2  0
 21 16  1  0
  1 16  1  0
  9 10  1  0
  5  6  1  0
 22 23  2  0
 10 11  1  0
 23 24  1  0
 24 25  2  0
 11 12  1  0
 25 26  1  0
  2  3  1  0
 26 27  2  0
 27 22  1  0
  4 22  1  0
M  END
>  <ACTIVITY>  (75) 
691

$$$$

     RDKit          3D

 21 23  0  0  0  0  0  0  0  0999 V2000
    5.3972  -18.9965    0.0000 C   0  0  0  0  0  0  0  0  0  0  0  0
    5.3959  -19.8241    0.0000 N   0  0  0  0  0  0  0  0  0  0  0  0
    6.1088  -20.2369    0.0000 C   0  0  0  0  0  0  0  0  0  0  0  0
    6.1069  -18.5837    0.0000 N   0  0  0  0  0  0  0  0  0  0  0  0
    6.8250  -18.9925    0.0000 C   0  0  0  0  0  0  0  0  0  0  0  0
    6.8256  -19.8241    0.0000 C   0  0  0  0  0  0  0  0  0  0  0  0
    7.6165  -20.0805    0.0000 N   0  0  0  0  0  0  0  0  0  0  0  0
    8.1049  -19.4074    0.0000 N   0  0  0  0  0  0  0  0  0  0  0  0
    7.6156  -18.7350    0.0000 C   0  0  0  0  0  0  0  0  0  0  0  0
    7.8700  -17.9504    0.0000 N   0  0  0  0  0  0  0  0  0  0  0  0
    8.6768  -17.7783    0.0000 C   0  0  0  0  0  0  0  0  0  0  0  0
    8.9312  -16.9935    0.0000 C   0  0  0  0  0  0  0  0  0  0  0  0
    9.2292  -18.3910    0.0000 O   0  0  0  0  0  0  0  0  0  0  0  0
    9.7380  -16.8215    0.0000 C   0  0  0  0  0  0  0  0  0  0  0  0
    9.9924  -16.0368    0.0000 C   0  0  0  0  0  0  0  0  0  0  0  0
    4.6826  -18.5851    0.0000 C   0  0  0  0  0  0  0  0  0  0  0  0
    4.6832  -17.7591    0.0000 C   0  0  0  0  0  0  0  0  0  0  0  0
    3.9693  -17.3473    0.0000 C   0  0  0  0  0  0  0  0  0  0  0  0
    3.2542  -17.7604    0.0000 C   0  0  0  0  0  0  0  0  0  0  0  0
    3.2576  -18.5896    0.0000 C   0  0  0  0  0  0  0  0  0  0  0  0
    3.9721  -18.9977    0.0000 C   0  0  0  0  0  0  0  0  0  0  0  0
  9 10  1  0
  5  6  2  0
 10 11  1  0
 11 12  1  0
  2  3  2  0
 11 13  2  0
  3  6  1  0
 12 14  1  0
  1  2  1  0
 14 15  1  0
  5  4  1  0
  6  7  1  0
 16 17  2  0
  7  8  1  0
 17 18  1  0
  8  9  2  0
 18 19  2  0
  9  5  1  0
 19 20  1  0
  4  1  2  0
 20 21  2  0
 21 16  1  0
  1 16  1  0
M  END
>  <ACTIVITY>  (76) 
2697

$$$$

     RDKit          3D

 21 23  0  0  0  0  0  0  0  0999 V2000
   -3.1134  -18.4374    0.0000 C   0  0  0  0  0  0  0  0  0  0  0  0
   -3.1148  -19.2649    0.0000 N   0  0  0  0  0  0  0  0  0  0  0  0
   -2.4018  -19.6778    0.0000 C   0  0  0  0  0  0  0  0  0  0  0  0
   -2.4038  -18.0246    0.0000 C   0  0  0  0  0  0  0  0  0  0  0  0
   -1.6856  -18.4333    0.0000 C   0  0  0  0  0  0  0  0  0  0  0  0
   -1.6851  -19.2649    0.0000 C   0  0  0  0  0  0  0  0  0  0  0  0
   -0.8941  -19.5214    0.0000 N   0  0  0  0  0  0  0  0  0  0  0  0
   -0.4058  -18.8483    0.0000 N   0  0  0  0  0  0  0  0  0  0  0  0
   -0.8950  -18.1760    0.0000 C   0  0  0  0  0  0  0  0  0  0  0  0
   -0.6406  -17.3913    0.0000 N   0  0  0  0  0  0  0  0  0  0  0  0
    0.1662  -17.2191    0.0000 C   0  0  0  0  0  0  0  0  0  0  0  0
    0.4206  -16.4345    0.0000 C   0  0  0  0  0  0  0  0  0  0  0  0
    0.7186  -17.8319    0.0000 O   0  0  0  0  0  0  0  0  0  0  0  0
    1.2274  -16.2624    0.0000 C   0  0  0  0  0  0  0  0  0  0  0  0
    1.4818  -15.4776    0.0000 C   0  0  0  0  0  0  0  0  0  0  0  0
   -3.8281  -18.0260    0.0000 C   0  0  0  0  0  0  0  0  0  0  0  0
   -3.8274  -17.2000    0.0000 C   0  0  0  0  0  0  0  0  0  0  0  0
   -4.5413  -16.7882    0.0000 C   0  0  0  0  0  0  0  0  0  0  0  0
   -5.2564  -17.2013    0.0000 C   0  0  0  0  0  0  0  0  0  0  0  0
   -5.2530  -18.0305    0.0000 C   0  0  0  0  0  0  0  0  0  0  0  0
   -4.5385  -18.4386    0.0000 C   0  0  0  0  0  0  0  0  0  0  0  0
  9 10  1  0
  5  6  2  0
 10 11  1  0
 11 12  1  0
  2  3  2  0
 11 13  2  0
  3  6  1  0
 12 14  1  0
  1  2  1  0
 14 15  1  0
  5  4  1  0
  6  7  1  0
 16 17  2  0
  7  8  1  0
 17 18  1  0
  8  9  2  0
 18 19  2  0
  9  5  1  0
 19 20  1  0
  4  1  2  0
 20 21  2  0
 21 16  1  0
  1 16  1  0
M  END
>  <ACTIVITY>  (77) 
7

$$$$

     RDKit          3D

 21 23  0  0  0  0  0  0  0  0999 V2000
    5.7318  -12.7453    0.0000 C   0  0  0  0  0  0  0  0  0  0  0  0
    5.7305  -13.5728    0.0000 C   0  0  0  0  0  0  0  0  0  0  0  0
    6.4434  -13.9857    0.0000 C   0  0  0  0  0  0  0  0  0  0  0  0
    6.4415  -12.3325    0.0000 C   0  0  0  0  0  0  0  0  0  0  0  0
    7.1595  -12.7413    0.0000 C   0  0  0  0  0  0  0  0  0  0  0  0
    7.1600  -13.5728    0.0000 C   0  0  0  0  0  0  0  0  0  0  0  0
    7.9511  -13.8293    0.0000 N   0  0  0  0  0  0  0  0  0  0  0  0
    8.4395  -13.1563    0.0000 N   0  0  0  0  0  0  0  0  0  0  0  0
    7.9502  -12.4839    0.0000 C   0  0  0  0  0  0  0  0  0  0  0  0
    8.2046  -11.6992    0.0000 N   0  0  0  0  0  0  0  0  0  0  0  0
    9.0114  -11.5271    0.0000 C   0  0  0  0  0  0  0  0  0  0  0  0
    9.2658  -10.7424    0.0000 C   0  0  0  0  0  0  0  0  0  0  0  0
    9.5638  -12.1398    0.0000 O   0  0  0  0  0  0  0  0  0  0  0  0
   10.0726  -10.5703    0.0000 C   0  0  0  0  0  0  0  0  0  0  0  0
   10.3270   -9.7855    0.0000 C   0  0  0  0  0  0  0  0  0  0  0  0
    5.0172  -12.3340    0.0000 C   0  0  0  0  0  0  0  0  0  0  0  0
    5.0178  -11.5079    0.0000 C   0  0  0  0  0  0  0  0  0  0  0  0
    4.3039  -11.0961    0.0000 C   0  0  0  0  0  0  0  0  0  0  0  0
    3.5888  -11.5092    0.0000 C   0  0  0  0  0  0  0  0  0  0  0  0
    3.5922  -12.3385    0.0000 C   0  0  0  0  0  0  0  0  0  0  0  0
    4.3067  -12.7465    0.0000 C   0  0  0  0  0  0  0  0  0  0  0  0
  9 10  1  0
  5  6  2  0
 10 11  1  0
 11 12  1  0
  2  3  2  0
 11 13  2  0
  3  6  1  0
 12 14  1  0
  1  2  1  0
 14 15  1  0
  5  4  1  0
  6  7  1  0
 16 17  2  0
  7  8  1  0
 17 18  1  0
  8  9  2  0
 18 19  2  0
  9  5  1  0
 19 20  1  0
  4  1  2  0
 20 21  2  0
 21 16  1  0
  1 16  1  0
M  END
>  <ACTIVITY>  (78) 
99

$$$$

     RDKit          2D

 24 27  0  0  0  0  0  0  0  0999 V2000
   -3.3243   -0.8008    0.0000 C   0  0  0  0  0  0  0  0  0  0  0  0
   -2.5706   -0.4653    0.0000 O   0  0  0  0  0  0  0  0  0  0  0  0
   -1.9032   -0.9502    0.0000 C   0  0  0  0  0  0  0  0  0  0  0  0
   -1.1495   -0.6146    0.0000 C   0  0  0  0  0  0  0  0  0  0  0  0
   -0.4820   -1.0995    0.0000 C   0  0  0  0  0  0  0  0  0  0  0  0
   -0.5683   -1.9200    0.0000 C   0  0  0  0  0  0  0  0  0  0  0  0
   -1.3220   -2.2556    0.0000 C   0  0  0  0  0  0  0  0  0  0  0  0
   -1.9894   -1.7707    0.0000 C   0  0  0  0  0  0  0  0  0  0  0  0
    0.0992   -2.4049    0.0000 C   0  0  0  0  0  0  0  0  0  0  0  0
    0.8838   -2.1500    0.0000 C   0  0  0  0  0  0  0  0  0  0  0  0
    1.1387   -1.3654    0.0000 N   0  0  0  0  0  0  0  0  0  0  0  0
    0.6538   -0.6979    0.0000 C   0  0  0  0  0  0  0  0  0  0  0  0
    1.1387   -0.0305    0.0000 C   0  0  0  0  0  0  0  0  0  0  0  0
    1.9233   -0.2854    0.0000 C   0  0  0  0  0  0  0  0  0  0  0  0
    2.6378    0.1271    0.0000 C   0  0  0  0  0  0  0  0  0  0  0  0
    3.3523   -0.2854    0.0000 C   0  0  0  0  0  0  0  0  0  0  0  0
    3.3523   -1.1104    0.0000 C   0  0  0  0  0  0  0  0  0  0  0  0
    2.6378   -1.5229    0.0000 C   0  0  0  0  0  0  0  0  0  0  0  0
    1.9233   -1.1104    0.0000 C   0  0  0  0  0  0  0  0  0  0  0  0
    1.3687   -2.8174    0.0000 C   0  0  0  0  0  0  0  0  0  0  0  0
    2.1937   -2.8174    0.0000 O   0  0  0  0  0  0  0  0  0  0  0  0
    0.8838   -3.4849    0.0000 N   0  0  0  0  0  0  0  0  0  0  0  0
    0.0992   -3.2299    0.0000 C   0  0  0  0  0  0  0  0  0  0  0  0
   -0.5683   -3.7149    0.0000 O   0  0  0  0  0  0  0  0  0  0  0  0
  1  2  1  0
  2  3  1  0
  3  4  2  0
  4  5  1  0
  5  6  2  0
  6  7  1  0
  7  8  2  0
  3  8  1  0
  6  9  1  0
  9 10  2  0
 10 11  1  0
 11 12  1  0
 12 13  1  0
 13 14  1  0
 14 15  2  0
 15 16  1  0
 16 17  2  0
 17 18  1  0
 18 19  2  0
 11 19  1  0
 14 19  1  0
 10 20  1  0
 20 21  2  0
 20 22  1  0
 22 23  1  0
  9 23  1  0
 23 24  2  0
M  END
>  <ACTIVITY>  (79) 
694

$$$$

     RDKit          2D

 23 26  0  0  0  0  0  0  0  0999 V2000
   -2.5706   -0.4653    0.0000 Cl  0  0  0  0  0  0  0  0  0  0  0  0
   -1.9032   -0.9502    0.0000 C   0  0  0  0  0  0  0  0  0  0  0  0
   -1.1495   -0.6146    0.0000 C   0  0  0  0  0  0  0  0  0  0  0  0
   -0.4820   -1.0995    0.0000 C   0  0  0  0  0  0  0  0  0  0  0  0
   -0.5683   -1.9200    0.0000 C   0  0  0  0  0  0  0  0  0  0  0  0
   -1.3220   -2.2556    0.0000 C   0  0  0  0  0  0  0  0  0  0  0  0
   -1.9894   -1.7707    0.0000 C   0  0  0  0  0  0  0  0  0  0  0  0
    0.0992   -2.4049    0.0000 C   0  0  0  0  0  0  0  0  0  0  0  0
    0.8838   -2.1500    0.0000 C   0  0  0  0  0  0  0  0  0  0  0  0
    1.1387   -1.3654    0.0000 N   0  0  0  0  0  0  0  0  0  0  0  0
    0.6538   -0.6979    0.0000 C   0  0  0  0  0  0  0  0  0  0  0  0
    1.1387   -0.0305    0.0000 C   0  0  0  0  0  0  0  0  0  0  0  0
    1.9233   -0.2854    0.0000 C   0  0  0  0  0  0  0  0  0  0  0  0
    2.6378    0.1271    0.0000 C   0  0  0  0  0  0  0  0  0  0  0  0
    3.3523   -0.2854    0.0000 C   0  0  0  0  0  0  0  0  0  0  0  0
    3.3523   -1.1104    0.0000 C   0  0  0  0  0  0  0  0  0  0  0  0
    2.6378   -1.5229    0.0000 C   0  0  0  0  0  0  0  0  0  0  0  0
    1.9233   -1.1104    0.0000 C   0  0  0  0  0  0  0  0  0  0  0  0
    1.3687   -2.8174    0.0000 C   0  0  0  0  0  0  0  0  0  0  0  0
    2.1937   -2.8174    0.0000 O   0  0  0  0  0  0  0  0  0  0  0  0
    0.8838   -3.4849    0.0000 N   0  0  0  0  0  0  0  0  0  0  0  0
    0.0992   -3.2299    0.0000 C   0  0  0  0  0  0  0  0  0  0  0  0
   -0.5683   -3.7149    0.0000 O   0  0  0  0  0  0  0  0  0  0  0  0
  1  2  1  0
  2  3  2  0
  3  4  1  0
  4  5  2  0
  5  6  1  0
  6  7  2  0
  2  7  1  0
  5  8  1  0
  8  9  2  0
  9 10  1  0
 10 11  1  0
 11 12  1  0
 12 13  1  0
 13 14  2  0
 14 15  1  0
 15 16  2  0
 16 17  1  0
 17 18  2  0
 10 18  1  0
 13 18  1  0
  9 19  1  0
 19 20  2  0
 19 21  1  0
 21 22  1  0
  8 22  1  0
 22 23  2  0
M  END
>  <ACTIVITY>  (80) 
1412

$$$$

     RDKit          2D

 25 28  0  0  0  0  0  0  0  0999 V2000
    5.9042   -3.6042    0.0000 C   0  0  0  0  0  0  0  0  0  0  0  0
    5.0792   -3.6000    0.0000 C   0  0  0  0  0  0  0  0  0  0  0  0
    6.3917   -4.2750    0.0000 N   0  0  0  0  0  0  0  0  0  0  0  0
    6.1625   -2.8250    0.0000 C   0  0  0  0  0  0  0  0  0  0  0  0
    4.8250   -2.8250    0.0000 C   0  0  0  0  0  0  0  0  0  0  0  0
    5.4917   -2.3417    0.0000 N   0  0  0  0  0  0  0  0  0  0  0  0
    2.4667   -4.7417    0.0000 N   0  0  0  0  0  0  0  0  0  0  0  0
    4.5917   -4.2542    0.0000 C   0  0  0  0  0  0  0  0  0  0  0  0
    7.2042   -4.1917    0.0000 C   0  0  0  0  0  0  0  0  0  0  0  0
    6.2167   -5.0750    0.0000 C   0  0  0  0  0  0  0  0  0  0  0  0
    3.2875   -4.8375    0.0000 C   0  0  0  0  0  0  0  0  0  0  0  0
    3.7750   -4.1792    0.0000 C   0  0  0  0  0  0  0  0  0  0  0  0
    2.1292   -3.9875    0.0000 O   0  0  0  0  0  0  0  0  0  0  0  0
    4.2042   -2.5000    0.0000 O   0  0  0  0  0  0  0  0  0  0  0  0
    6.9500   -2.5750    0.0000 O   0  0  0  0  0  0  0  0  0  0  0  0
    1.9750   -5.4042    0.0000 O   0  0  0  0  0  0  0  0  0  0  0  0
    7.5375   -4.9417    0.0000 C   0  0  0  0  0  0  0  0  0  0  0  0
    6.9292   -5.4917    0.0000 C   0  0  0  0  0  0  0  0  0  0  0  0
    4.9292   -5.0167    0.0000 C   0  0  0  0  0  0  0  0  0  0  0  0
    7.6917   -3.5292    0.0000 C   0  0  0  0  0  0  0  0  0  0  0  0
    3.6167   -5.5917    0.0000 C   0  0  0  0  0  0  0  0  0  0  0  0
    4.4417   -5.6875    0.0000 C   0  0  0  0  0  0  0  0  0  0  0  0
    8.3500   -5.0292    0.0000 C   0  0  0  0  0  0  0  0  0  0  0  0
    8.5042   -3.6167    0.0000 C   0  0  0  0  0  0  0  0  0  0  0  0
    8.8375   -4.3750    0.0000 C   0  0  0  0  0  0  0  0  0  0  0  0
  2  1  2  0
  3  1  1  0
  4  1  1  0
  5  2  1  0
  6  4  1  0
  7 11  1  0
  8  2  1  0
  9  3  1  0
 10  3  1  0
 11 12  2  0
 12  8  1  0
 13  7  1  0
 14  5  2  0
 15  4  2  0
 16  7  2  0
 17  9  2  0
 18 10  1  0
 19  8  2  0
 20  9  1  0
 21 22  2  0
 22 19  1  0
 23 17  1  0
 24 20  2  0
 25 24  1  0
  6  5  1  0
 18 17  1  0
 23 25  2  0
 11 21  1  0
M  CHG  2   7   1  13  -1
M  END
>  <ACTIVITY>  (81) 
161

$$$$

     RDKit          2D

 23 26  0  0  0  0  0  0  0  0999 V2000
    5.9042   -3.6042    0.0000 C   0  0  0  0  0  0  0  0  0  0  0  0
    5.0792   -3.6000    0.0000 C   0  0  0  0  0  0  0  0  0  0  0  0
    6.3917   -4.2750    0.0000 N   0  0  0  0  0  0  0  0  0  0  0  0
    6.1625   -2.8250    0.0000 C   0  0  0  0  0  0  0  0  0  0  0  0
    4.8250   -2.8250    0.0000 C   0  0  0  0  0  0  0  0  0  0  0  0
    5.4917   -2.3417    0.0000 N   0  0  0  0  0  0  0  0  0  0  0  0
    4.5917   -4.2542    0.0000 C   0  0  0  0  0  0  0  0  0  0  0  0
    7.2042   -4.1917    0.0000 C   0  0  0  0  0  0  0  0  0  0  0  0
    6.2167   -5.0750    0.0000 C   0  0  0  0  0  0  0  0  0  0  0  0
    4.2042   -2.5000    0.0000 O   0  0  0  0  0  0  0  0  0  0  0  0
    6.9500   -2.5750    0.0000 O   0  0  0  0  0  0  0  0  0  0  0  0
    7.5375   -4.9417    0.0000 C   0  0  0  0  0  0  0  0  0  0  0  0
    3.7750   -4.1792    0.0000 C   0  0  0  0  0  0  0  0  0  0  0  0
    6.9292   -5.4917    0.0000 C   0  0  0  0  0  0  0  0  0  0  0  0
    3.2875   -4.8375    0.0000 C   0  0  0  0  0  0  0  0  0  0  0  0
    4.9292   -5.0167    0.0000 C   0  0  0  0  0  0  0  0  0  0  0  0
    2.4667   -4.7417    0.0000 Cl  0  0  0  0  0  0  0  0  0  0  0  0
    7.6917   -3.5292    0.0000 C   0  0  0  0  0  0  0  0  0  0  0  0
    4.4417   -5.6875    0.0000 C   0  0  0  0  0  0  0  0  0  0  0  0
    8.3500   -5.0292    0.0000 C   0  0  0  0  0  0  0  0  0  0  0  0
    3.6167   -5.5917    0.0000 C   0  0  0  0  0  0  0  0  0  0  0  0
    8.5042   -3.6167    0.0000 C   0  0  0  0  0  0  0  0  0  0  0  0
    8.8375   -4.3750    0.0000 C   0  0  0  0  0  0  0  0  0  0  0  0
  2  1  2  0
  3  1  1  0
  4  1  1  0
  5  2  1  0
  6  4  1  0
  7  2  1  0
  8  3  1  0
  9  3  1  0
 10  5  2  0
 11  4  2  0
 12  8  2  0
 13  7  2  0
 14  9  1  0
 15 13  1  0
 16  7  1  0
 17 15  1  0
 18  8  1  0
 19 16  2  0
 20 12  1  0
 21 19  1  0
 22 18  2  0
 23 22  1  0
  6  5  1  0
 14 12  1  0
 20 23  2  0
 15 21  2  0
M  END
>  <ACTIVITY>  (82) 
460

$$$$

     RDKit          2D

 25 28  0  0  0  0  0  0  0  0999 V2000
    5.0792   -3.6000    0.0000 C   0  0  0  0  0  0  0  0  0  0  0  0
    5.9042   -3.6042    0.0000 C   0  0  0  0  0  0  0  0  0  0  0  0
    6.3917   -4.2750    0.0000 N   0  0  0  0  0  0  0  0  0  0  0  0
    4.8250   -2.8250    0.0000 C   0  0  0  0  0  0  0  0  0  0  0  0
    6.1625   -2.8250    0.0000 C   0  0  0  0  0  0  0  0  0  0  0  0
    5.4917   -2.3417    0.0000 N   0  0  0  0  0  0  0  0  0  0  0  0
    4.5917   -4.2542    0.0000 C   0  0  0  0  0  0  0  0  0  0  0  0
    3.4417   -3.4167    0.0000 N   0  0  0  0  0  0  0  0  0  0  0  0
    3.7750   -4.1792    0.0000 C   0  0  0  0  0  0  0  0  0  0  0  0
    7.2042   -4.1917    0.0000 C   0  0  0  0  0  0  0  0  0  0  0  0
    6.2167   -5.0750    0.0000 C   0  0  0  0  0  0  0  0  0  0  0  0
    3.3917   -2.5250    0.0000 O   0  0  0  0  0  0  0  0  0  0  0  0
    4.2042   -2.5000    0.0000 O   0  0  0  0  0  0  0  0  0  0  0  0
    6.9500   -2.5750    0.0000 O   0  0  0  0  0  0  0  0  0  0  0  0
    2.6250   -3.3292    0.0000 O   0  0  0  0  0  0  0  0  0  0  0  0
    7.5375   -4.9417    0.0000 C   0  0  0  0  0  0  0  0  0  0  0  0
    6.9292   -5.4917    0.0000 C   0  0  0  0  0  0  0  0  0  0  0  0
    4.9292   -5.0167    0.0000 C   0  0  0  0  0  0  0  0  0  0  0  0
    7.6917   -3.5292    0.0000 C   0  0  0  0  0  0  0  0  0  0  0  0
    3.2875   -4.8375    0.0000 C   0  0  0  0  0  0  0  0  0  0  0  0
    8.3500   -5.0292    0.0000 C   0  0  0  0  0  0  0  0  0  0  0  0
    4.4417   -5.6875    0.0000 C   0  0  0  0  0  0  0  0  0  0  0  0
    8.5042   -3.6167    0.0000 C   0  0  0  0  0  0  0  0  0  0  0  0
    3.6167   -5.5917    0.0000 C   0  0  0  0  0  0  0  0  0  0  0  0
    8.8375   -4.3750    0.0000 C   0  0  0  0  0  0  0  0  0  0  0  0
  2  1  2  0
  3  2  1  0
  4  1  1  0
  5  2  1  0
  6  4  1  0
  7  1  1  0
  8  9  1  0
  9  7  2  0
 10  3  1  0
 11  3  1  0
 12  8  1  0
 13  4  2  0
 14  5  2  0
 15  8  2  0
 16 10  2  0
 17 11  1  0
 18  7  1  0
 19 10  1  0
 20  9  1  0
 21 16  1  0
 22 18  2  0
 23 19  2  0
 24 22  1  0
 25 23  1  0
  5  6  1  0
 20 24  2  0
 17 16  1  0
 21 25  2  0
M  CHG  2   8   1  12  -1
M  END
>  <ACTIVITY>  (83) 
131

$$$$

     RDKit          2D

 24 27  0  0  0  0  0  0  0  0999 V2000
    5.0667   -3.6000    0.0000 C   0  0  0  0  0  0  0  0  0  0  0  0
    5.8917   -3.5417    0.0000 C   0  0  0  0  0  0  0  0  0  0  0  0
    6.4167   -4.1792    0.0000 N   0  0  0  0  0  0  0  0  0  0  0  0
    4.7667   -2.8292    0.0000 C   0  0  0  0  0  0  0  0  0  0  0  0
    6.0917   -2.7417    0.0000 C   0  0  0  0  0  0  0  0  0  0  0  0
    5.4000   -2.3042    0.0000 N   0  0  0  0  0  0  0  0  0  0  0  0
    4.6292   -4.2917    0.0000 C   0  0  0  0  0  0  0  0  0  0  0  0
    7.2417   -4.1292    0.0000 C   0  0  0  0  0  0  0  0  0  0  0  0
    6.2167   -4.9792    0.0000 C   0  0  0  0  0  0  0  0  0  0  0  0
    4.1250   -2.5792    0.0000 O   0  0  0  0  0  0  0  0  0  0  0  0
    6.8667   -2.4417    0.0000 O   0  0  0  0  0  0  0  0  0  0  0  0
    7.5417   -4.8917    0.0000 C   0  0  0  0  0  0  0  0  0  0  0  0
    3.8042   -4.2542    0.0000 C   0  0  0  0  0  0  0  0  0  0  0  0
    6.9125   -5.4167    0.0000 C   0  0  0  0  0  0  0  0  0  0  0  0
    3.4250   -3.5292    0.0000 O   0  0  0  0  0  0  0  0  0  0  0  0
    7.7500   -3.4792    0.0000 C   0  0  0  0  0  0  0  0  0  0  0  0
    5.0125   -5.0292    0.0000 C   0  0  0  0  0  0  0  0  0  0  0  0
    8.3542   -5.0125    0.0000 C   0  0  0  0  0  0  0  0  0  0  0  0
    3.3625   -4.9542    0.0000 C   0  0  0  0  0  0  0  0  0  0  0  0
    2.6000   -3.4917    0.0000 C   0  0  0  0  0  0  0  0  0  0  0  0
    8.5625   -3.6000    0.0000 C   0  0  0  0  0  0  0  0  0  0  0  0
    4.5667   -5.7292    0.0000 C   0  0  0  0  0  0  0  0  0  0  0  0
    8.8667   -4.3667    0.0000 C   0  0  0  0  0  0  0  0  0  0  0  0
    3.7417   -5.6917    0.0000 C   0  0  0  0  0  0  0  0  0  0  0  0
  2  1  2  0
  3  2  1  0
  4  1  1  0
  5  2  1  0
  6  4  1  0
  7  1  1  0
  8  3  1  0
  9  3  1  0
 10  4  2  0
 11  5  2  0
 12  8  2  0
 13  7  2  0
 14  9  1  0
 15 13  1  0
 16  8  1  0
 17  7  1  0
 18 12  1  0
 19 13  1  0
 20 15  1  0
 21 16  2  0
 22 17  2  0
 23 21  1  0
 24 22  1  0
  5  6  1  0
 19 24  2  0
 14 12  1  0
 18 23  2  0
M  END
>  <ACTIVITY>  (84) 
187

$$$$

     RDKit          2D

 23 26  0  0  0  0  0  0  0  0999 V2000
    5.0792   -3.6000    0.0000 C   0  0  0  0  0  0  0  0  0  0  0  0
    5.9042   -3.6042    0.0000 C   0  0  0  0  0  0  0  0  0  0  0  0
    6.3917   -4.2750    0.0000 N   0  0  0  0  0  0  0  0  0  0  0  0
    4.8250   -2.8250    0.0000 C   0  0  0  0  0  0  0  0  0  0  0  0
    6.1625   -2.8250    0.0000 C   0  0  0  0  0  0  0  0  0  0  0  0
    5.4917   -2.3417    0.0000 N   0  0  0  0  0  0  0  0  0  0  0  0
    4.5917   -4.2542    0.0000 C   0  0  0  0  0  0  0  0  0  0  0  0
    7.2042   -4.1917    0.0000 C   0  0  0  0  0  0  0  0  0  0  0  0
    6.2167   -5.0750    0.0000 C   0  0  0  0  0  0  0  0  0  0  0  0
    4.2042   -2.5000    0.0000 O   0  0  0  0  0  0  0  0  0  0  0  0
    6.9500   -2.5750    0.0000 O   0  0  0  0  0  0  0  0  0  0  0  0
    7.5375   -4.9417    0.0000 C   0  0  0  0  0  0  0  0  0  0  0  0
    3.7750   -4.1792    0.0000 C   0  0  0  0  0  0  0  0  0  0  0  0
    6.9292   -5.4917    0.0000 C   0  0  0  0  0  0  0  0  0  0  0  0
    3.4417   -3.4167    0.0000 Cl  0  0  0  0  0  0  0  0  0  0  0  0
    7.6917   -3.5292    0.0000 C   0  0  0  0  0  0  0  0  0  0  0  0
    4.9292   -5.0167    0.0000 C   0  0  0  0  0  0  0  0  0  0  0  0
    8.3500   -5.0292    0.0000 C   0  0  0  0  0  0  0  0  0  0  0  0
    3.2875   -4.8375    0.0000 C   0  0  0  0  0  0  0  0  0  0  0  0
    8.5042   -3.6167    0.0000 C   0  0  0  0  0  0  0  0  0  0  0  0
    4.4417   -5.6875    0.0000 C   0  0  0  0  0  0  0  0  0  0  0  0
    8.8375   -4.3750    0.0000 C   0  0  0  0  0  0  0  0  0  0  0  0
    3.6167   -5.5917    0.0000 C   0  0  0  0  0  0  0  0  0  0  0  0
  2  1  2  0
  3  2  1  0
  4  1  1  0
  5  2  1  0
  6  4  1  0
  7  1  1  0
  8  3  1  0
  9  3  1  0
 10  4  2  0
 11  5  2  0
 12  8  2  0
 13  7  2  0
 14  9  1  0
 15 13  1  0
 16  8  1  0
 17  7  1  0
 18 12  1  0
 19 13  1  0
 20 16  2  0
 21 17  2  0
 22 20  1  0
 23 21  1  0
  5  6  1  0
 19 23  2  0
 14 12  1  0
 18 22  2  0
M  END
>  <ACTIVITY>  (85) 
337

$$$$

     RDKit          2D

 22 24  0  0  0  0  0  0  0  0999 V2000
    5.9042   -3.6042    0.0000 C   0  0  0  0  0  0  0  0  0  0  0  0
    5.0792   -3.6000    0.0000 C   0  0  0  0  0  0  0  0  0  0  0  0
    4.8250   -2.8250    0.0000 C   0  0  0  0  0  0  0  0  0  0  0  0
    6.1625   -2.8250    0.0000 C   0  0  0  0  0  0  0  0  0  0  0  0
    5.4917   -2.3417    0.0000 N   0  0  0  0  0  0  0  0  0  0  0  0
    6.3875   -4.2750    0.0000 N   0  0  0  0  0  0  0  0  0  0  0  0
    4.5917   -4.2542    0.0000 C   0  0  0  0  0  0  0  0  0  0  0  0
    4.2042   -2.5000    0.0000 O   0  0  0  0  0  0  0  0  0  0  0  0
    6.9500   -2.5750    0.0000 O   0  0  0  0  0  0  0  0  0  0  0  0
    7.2042   -4.1917    0.0000 C   0  0  0  0  0  0  0  0  0  0  0  0
    3.7750   -4.1792    0.0000 C   0  0  0  0  0  0  0  0  0  0  0  0
    4.9292   -5.0167    0.0000 C   0  0  0  0  0  0  0  0  0  0  0  0
    3.6167   -5.5917    0.0000 C   0  0  0  0  0  0  0  0  0  0  0  0
    3.2875   -4.8375    0.0000 C   0  0  0  0  0  0  0  0  0  0  0  0
    4.4417   -5.6875    0.0000 C   0  0  0  0  0  0  0  0  0  0  0  0
    3.1292   -6.2542    0.0000 Cl  0  0  0  0  0  0  0  0  0  0  0  0
    6.0500   -5.0250    0.0000 C   0  0  0  0  0  0  0  0  0  0  0  0
    7.6917   -4.8625    0.0000 C   0  0  0  0  0  0  0  0  0  0  0  0
    7.5417   -3.4417    0.0000 C   0  0  0  0  0  0  0  0  0  0  0  0
    8.3625   -3.3542    0.0000 C   0  0  0  0  0  0  0  0  0  0  0  0
    8.5042   -4.7792    0.0000 C   0  0  0  0  0  0  0  0  0  0  0  0
    8.8500   -4.0292    0.0000 C   0  0  0  0  0  0  0  0  0  0  0  0
  2  1  2  0
  3  2  1  0
  4  1  1  0
  5  4  1  0
  6  1  1  0
  7  2  1  0
  8  3  2  0
  9  4  2  0
 10  6  1  0
 11  7  2  0
 12  7  1  0
 13 15  1  0
 14 11  1  0
 15 12  2  0
 16 13  1  0
 17  6  1  0
 18 10  2  0
 19 10  1  0
 20 19  2  0
 21 18  1  0
 22 20  1  0
  5  3  1  0
 14 13  2  0
 21 22  2  0
M  END
>  <ACTIVITY>  (86) 
2285

$$$$

     RDKit          2D

 24 26  0  0  0  0  0  0  0  0999 V2000
    5.0792   -3.6000    0.0000 C   0  0  0  0  0  0  0  0  0  0  0  0
    5.9042   -3.6042    0.0000 C   0  0  0  0  0  0  0  0  0  0  0  0
    4.8250   -2.8250    0.0000 C   0  0  0  0  0  0  0  0  0  0  0  0
    6.1625   -2.8250    0.0000 C   0  0  0  0  0  0  0  0  0  0  0  0
    5.4917   -2.3417    0.0000 N   0  0  0  0  0  0  0  0  0  0  0  0
    2.4667   -4.7417    0.0000 N   0  0  0  0  0  0  0  0  0  0  0  0
    4.5917   -4.2542    0.0000 C   0  0  0  0  0  0  0  0  0  0  0  0
    6.3875   -4.2750    0.0000 N   0  0  0  0  0  0  0  0  0  0  0  0
    3.2875   -4.8375    0.0000 C   0  0  0  0  0  0  0  0  0  0  0  0
    3.7750   -4.1792    0.0000 C   0  0  0  0  0  0  0  0  0  0  0  0
    2.1292   -3.9875    0.0000 O   0  0  0  0  0  0  0  0  0  0  0  0
    4.2042   -2.5000    0.0000 O   0  0  0  0  0  0  0  0  0  0  0  0
    6.9500   -2.5750    0.0000 O   0  0  0  0  0  0  0  0  0  0  0  0
    1.9750   -5.4042    0.0000 O   0  0  0  0  0  0  0  0  0  0  0  0
    7.2042   -4.1917    0.0000 C   0  0  0  0  0  0  0  0  0  0  0  0
    4.9292   -5.0167    0.0000 C   0  0  0  0  0  0  0  0  0  0  0  0
    6.0500   -5.0250    0.0000 C   0  0  0  0  0  0  0  0  0  0  0  0
    3.6167   -5.5917    0.0000 C   0  0  0  0  0  0  0  0  0  0  0  0
    4.4417   -5.6875    0.0000 C   0  0  0  0  0  0  0  0  0  0  0  0
    7.6917   -4.8625    0.0000 C   0  0  0  0  0  0  0  0  0  0  0  0
    7.5417   -3.4417    0.0000 C   0  0  0  0  0  0  0  0  0  0  0  0
    8.3625   -3.3542    0.0000 C   0  0  0  0  0  0  0  0  0  0  0  0
    8.5042   -4.7792    0.0000 C   0  0  0  0  0  0  0  0  0  0  0  0
    8.8500   -4.0292    0.0000 C   0  0  0  0  0  0  0  0  0  0  0  0
  2  1  2  0
  3  1  1  0
  4  2  1  0
  5  3  1  0
  6  9  1  0
  7  1  1  0
  8  2  1  0
  9 10  2  0
 10  7  1  0
 11  6  1  0
 12  3  2  0
 13  4  2  0
 14  6  2  0
 15  8  1  0
 16  7  2  0
 17  8  1  0
 18 19  2  0
 19 16  1  0
 20 15  2  0
 21 15  1  0
 22 21  2  0
 23 20  1  0
 24 22  1  0
  4  5  1  0
  9 18  1  0
 23 24  2  0
M  CHG  2   6   1  11  -1
M  END
>  <ACTIVITY>  (87) 
1398

$$$$

     RDKit          2D

 21 23  0  0  0  0  0  0  0  0999 V2000
    5.9042   -3.6042    0.0000 C   0  0  0  0  0  0  0  0  0  0  0  0
    5.0792   -3.6000    0.0000 C   0  0  0  0  0  0  0  0  0  0  0  0
    4.8250   -2.8250    0.0000 C   0  0  0  0  0  0  0  0  0  0  0  0
    6.1625   -2.8250    0.0000 C   0  0  0  0  0  0  0  0  0  0  0  0
    5.4917   -2.3417    0.0000 N   0  0  0  0  0  0  0  0  0  0  0  0
    6.3875   -4.2750    0.0000 N   0  0  0  0  0  0  0  0  0  0  0  0
    4.5917   -4.2542    0.0000 C   0  0  0  0  0  0  0  0  0  0  0  0
    4.2042   -2.5000    0.0000 O   0  0  0  0  0  0  0  0  0  0  0  0
    6.9500   -2.5750    0.0000 O   0  0  0  0  0  0  0  0  0  0  0  0
    7.2042   -4.1917    0.0000 C   0  0  0  0  0  0  0  0  0  0  0  0
    6.0500   -5.0250    0.0000 C   0  0  0  0  0  0  0  0  0  0  0  0
    4.9292   -5.0167    0.0000 C   0  0  0  0  0  0  0  0  0  0  0  0
    3.7750   -4.1792    0.0000 C   0  0  0  0  0  0  0  0  0  0  0  0
    7.5417   -3.4417    0.0000 C   0  0  0  0  0  0  0  0  0  0  0  0
    7.6917   -4.8625    0.0000 C   0  0  0  0  0  0  0  0  0  0  0  0
    4.4417   -5.6875    0.0000 C   0  0  0  0  0  0  0  0  0  0  0  0
    3.2875   -4.8375    0.0000 C   0  0  0  0  0  0  0  0  0  0  0  0
    8.5042   -4.7792    0.0000 C   0  0  0  0  0  0  0  0  0  0  0  0
    8.3625   -3.3542    0.0000 C   0  0  0  0  0  0  0  0  0  0  0  0
    8.8500   -4.0292    0.0000 C   0  0  0  0  0  0  0  0  0  0  0  0
    3.6167   -5.5917    0.0000 C   0  0  0  0  0  0  0  0  0  0  0  0
  2  1  2  0
  3  2  1  0
  4  1  1  0
  5  4  1  0
  6  1  1  0
  7  2  1  0
  8  3  2  0
  9  4  2  0
 10  6  1  0
 11  6  1  0
 12  7  2  0
 13  7  1  0
 14 10  2  0
 15 10  1  0
 16 12  1  0
 17 13  2  0
 18 15  2  0
 19 14  1  0
 20 18  1  0
 21 17  1  0
  5  3  1  0
 19 20  2  0
 16 21  2  0
M  END
>  <ACTIVITY>  (88) 
2613

$$$$

     RDKit          2D

 25 27  0  0  0  0  0  0  0  0999 V2000
    5.0792   -3.6000    0.0000 C   0  0  0  0  0  0  0  0  0  0  0  0
    5.9042   -3.6042    0.0000 C   0  0  0  0  0  0  0  0  0  0  0  0
    4.8250   -2.8250    0.0000 C   0  0  0  0  0  0  0  0  0  0  0  0
    5.4917   -2.3417    0.0000 N   0  0  0  0  0  0  0  0  0  0  0  0
    6.1625   -2.8250    0.0000 C   0  0  0  0  0  0  0  0  0  0  0  0
    3.1292   -6.2625    0.0000 N   0  0  0  0  0  0  0  0  0  0  0  0
    6.3875   -4.2750    0.0000 N   0  0  0  0  0  0  0  0  0  0  0  0
    4.5917   -4.2542    0.0000 C   0  0  0  0  0  0  0  0  0  0  0  0
    3.6167   -5.5917    0.0000 C   0  0  0  0  0  0  0  0  0  0  0  0
    2.3125   -6.1667    0.0000 O   0  0  0  0  0  0  0  0  0  0  0  0
    4.2042   -2.5000    0.0000 O   0  0  0  0  0  0  0  0  0  0  0  0
    3.4625   -7.0167    0.0000 O   0  0  0  0  0  0  0  0  0  0  0  0
    6.9500   -2.5750    0.0000 O   0  0  0  0  0  0  0  0  0  0  0  0
    3.7750   -4.1792    0.0000 C   0  0  0  0  0  0  0  0  0  0  0  0
    4.9292   -5.0167    0.0000 C   0  0  0  0  0  0  0  0  0  0  0  0
    3.2875   -4.8375    0.0000 C   0  0  0  0  0  0  0  0  0  0  0  0
    4.4417   -5.6875    0.0000 C   0  0  0  0  0  0  0  0  0  0  0  0
    7.2042   -4.1917    0.0000 C   0  0  0  0  0  0  0  0  0  0  0  0
    8.8500   -4.0292    0.0000 C   0  0  0  0  0  0  0  0  0  0  0  0
    9.6667   -3.9417    0.0000 S   0  0  0  0  0  0  0  0  0  0  0  0
    7.6917   -4.8625    0.0000 C   0  0  0  0  0  0  0  0  0  0  0  0
    7.5417   -3.4417    0.0000 C   0  0  0  0  0  0  0  0  0  0  0  0
    8.3625   -3.3542    0.0000 C   0  0  0  0  0  0  0  0  0  0  0  0
    8.5042   -4.7792    0.0000 C   0  0  0  0  0  0  0  0  0  0  0  0
   10.1542   -4.6125    0.0000 C   0  0  0  0  0  0  0  0  0  0  0  0
  2  1  2  0
  3  1  1  0
  4  3  1  0
  5  2  1  0
  6  9  1  0
  7  2  1  0
  8  1  1  0
  9 17  2  0
 10  6  1  0
 11  3  2  0
 12  6  2  0
 13  5  2  0
 14  8  1  0
 15  8  2  0
 16 14  2  0
 17 15  1  0
 18  7  1  0
 19 23  2  0
 20 19  1  0
 21 18  1  0
 22 18  2  0
 23 22  1  0
 24 21  2  0
 25 20  1  0
  5  4  1  0
 16  9  1  0
 24 19  1  0
M  CHG  2   6   1  10  -1
M  END
>  <ACTIVITY>  (89) 
392

$$$$

     RDKit          2D

 26 28  0  0  0  0  0  0  0  0999 V2000
    5.0792   -3.6000    0.0000 C   0  0  0  0  0  0  0  0  0  0  0  0
    5.9042   -3.6042    0.0000 C   0  0  0  0  0  0  0  0  0  0  0  0
    4.8250   -2.8250    0.0000 C   0  0  0  0  0  0  0  0  0  0  0  0
    5.4917   -2.3417    0.0000 N   0  0  0  0  0  0  0  0  0  0  0  0
    6.1625   -2.8250    0.0000 C   0  0  0  0  0  0  0  0  0  0  0  0
    3.1292   -6.2625    0.0000 N   0  0  0  0  0  0  0  0  0  0  0  0
    6.3875   -4.2750    0.0000 N   0  0  0  0  0  0  0  0  0  0  0  0
    8.8500   -4.0292    0.0000 C   0  0  0  0  0  0  0  0  0  0  0  0
    8.3625   -3.3542    0.0000 C   0  0  0  0  0  0  0  0  0  0  0  0
    8.5042   -4.7792    0.0000 C   0  0  0  0  0  0  0  0  0  0  0  0
    7.2042   -4.1917    0.0000 C   0  0  0  0  0  0  0  0  0  0  0  0
    4.5917   -4.2542    0.0000 C   0  0  0  0  0  0  0  0  0  0  0  0
    7.5417   -3.4417    0.0000 C   0  0  0  0  0  0  0  0  0  0  0  0
    7.6917   -4.8625    0.0000 C   0  0  0  0  0  0  0  0  0  0  0  0
    3.6167   -5.5917    0.0000 C   0  0  0  0  0  0  0  0  0  0  0  0
    2.3125   -6.1667    0.0000 O   0  0  0  0  0  0  0  0  0  0  0  0
    4.2042   -2.5000    0.0000 O   0  0  0  0  0  0  0  0  0  0  0  0
    3.4625   -7.0167    0.0000 O   0  0  0  0  0  0  0  0  0  0  0  0
    6.9500   -2.5750    0.0000 O   0  0  0  0  0  0  0  0  0  0  0  0
    3.7750   -4.1792    0.0000 C   0  0  0  0  0  0  0  0  0  0  0  0
    4.9292   -5.0167    0.0000 C   0  0  0  0  0  0  0  0  0  0  0  0
    3.2875   -4.8375    0.0000 C   0  0  0  0  0  0  0  0  0  0  0  0
    4.4417   -5.6875    0.0000 C   0  0  0  0  0  0  0  0  0  0  0  0
    9.0917   -5.3625    0.0000 Cl  0  0  0  0  0  0  0  0  0  0  0  0
    8.7667   -2.6417    0.0000 Cl  0  0  0  0  0  0  0  0  0  0  0  0
    9.6667   -3.9417    0.0000 O   0  0  0  0  0  0  0  0  0  0  0  0
  2  1  2  0
  3  1  1  0
  4  3  1  0
  5  2  1  0
  6 15  1  0
  7  2  1  0
  8 10  2  0
  9 13  2  0
 10 14  1  0
 11  7  1  0
 12  1  1  0
 13 11  1  0
 14 11  2  0
 15 23  2  0
 16  6  1  0
 17  3  2  0
 18  6  2  0
 19  5  2  0
 20 12  1  0
 21 12  2  0
 22 20  2  0
 23 21  1  0
 24 10  1  0
 25  9  1  0
 26  8  1  0
  5  4  1  0
 22 15  1  0
  9  8  1  0
M  CHG  2   6   1  16  -1
M  END
>  <ACTIVITY>  (90) 
71

$$$$

     RDKit          2D

 24 26  0  0  0  0  0  0  0  0999 V2000
    5.0792   -3.6000    0.0000 C   0  0  0  0  0  0  0  0  0  0  0  0
    5.9042   -3.6042    0.0000 C   0  0  0  0  0  0  0  0  0  0  0  0
    4.8250   -2.8250    0.0000 C   0  0  0  0  0  0  0  0  0  0  0  0
    5.4917   -2.3417    0.0000 N   0  0  0  0  0  0  0  0  0  0  0  0
    6.1625   -2.8250    0.0000 C   0  0  0  0  0  0  0  0  0  0  0  0
    6.3875   -4.2750    0.0000 N   0  0  0  0  0  0  0  0  0  0  0  0
    4.5917   -4.2542    0.0000 C   0  0  0  0  0  0  0  0  0  0  0  0
    4.2042   -2.5000    0.0000 O   0  0  0  0  0  0  0  0  0  0  0  0
    6.9500   -2.5750    0.0000 O   0  0  0  0  0  0  0  0  0  0  0  0
    4.9292   -5.0167    0.0000 C   0  0  0  0  0  0  0  0  0  0  0  0
    3.7750   -4.1792    0.0000 C   0  0  0  0  0  0  0  0  0  0  0  0
    7.2042   -4.1917    0.0000 C   0  0  0  0  0  0  0  0  0  0  0  0
    8.8500   -4.0292    0.0000 C   0  0  0  0  0  0  0  0  0  0  0  0
    9.6667   -3.9417    0.0000 S   0  0  0  0  0  0  0  0  0  0  0  0
    3.6167   -5.5917    0.0000 C   0  0  0  0  0  0  0  0  0  0  0  0
    3.2875   -4.8375    0.0000 C   0  0  0  0  0  0  0  0  0  0  0  0
    4.4417   -5.6875    0.0000 C   0  0  0  0  0  0  0  0  0  0  0  0
    7.5417   -3.4417    0.0000 C   0  0  0  0  0  0  0  0  0  0  0  0
    7.6917   -4.8625    0.0000 C   0  0  0  0  0  0  0  0  0  0  0  0
    8.5042   -4.7792    0.0000 C   0  0  0  0  0  0  0  0  0  0  0  0
    8.3625   -3.3542    0.0000 C   0  0  0  0  0  0  0  0  0  0  0  0
    3.1292   -6.2542    0.0000 O   0  0  0  0  0  0  0  0  0  0  0  0
   10.1542   -4.6125    0.0000 C   0  0  0  0  0  0  0  0  0  0  0  0
    2.3125   -6.1667    0.0000 C   0  0  0  0  0  0  0  0  0  0  0  0
  2  1  2  0
  3  1  1  0
  4  3  1  0
  5  2  1  0
  6  2  1  0
  7  1  1  0
  8  3  2  0
  9  5  2  0
 10  7  2  0
 11  7  1  0
 12  6  1  0
 13 20  2  0
 14 13  1  0
 15 16  1  0
 16 11  2  0
 17 10  1  0
 18 12  1  0
 19 12  2  0
 20 19  1  0
 21 18  2  0
 22 15  1  0
 23 14  1  0
 24 22  1  0
  5  4  1  0
 15 17  2  0
 21 13  1  0
M  END
>  <ACTIVITY>  (91) 
243

$$$$

     RDKit          2D

 25 27  0  0  0  0  0  0  0  0999 V2000
    5.0792   -3.6000    0.0000 C   0  0  0  0  0  0  0  0  0  0  0  0
    5.9042   -3.6042    0.0000 C   0  0  0  0  0  0  0  0  0  0  0  0
    4.8250   -2.8250    0.0000 C   0  0  0  0  0  0  0  0  0  0  0  0
    5.4917   -2.3417    0.0000 N   0  0  0  0  0  0  0  0  0  0  0  0
    6.1625   -2.8250    0.0000 C   0  0  0  0  0  0  0  0  0  0  0  0
    6.3875   -4.2750    0.0000 N   0  0  0  0  0  0  0  0  0  0  0  0
    8.6917   -2.6042    0.0000 C   0  0  0  0  0  0  0  0  0  0  0  0
    4.5917   -4.2542    0.0000 C   0  0  0  0  0  0  0  0  0  0  0  0
    8.3625   -3.3542    0.0000 C   0  0  0  0  0  0  0  0  0  0  0  0
    4.2042   -2.5000    0.0000 O   0  0  0  0  0  0  0  0  0  0  0  0
    6.9500   -2.5750    0.0000 O   0  0  0  0  0  0  0  0  0  0  0  0
    7.2042   -4.1917    0.0000 C   0  0  0  0  0  0  0  0  0  0  0  0
    7.5417   -3.4417    0.0000 C   0  0  0  0  0  0  0  0  0  0  0  0
    8.2125   -1.9375    0.0000 O   0  0  0  0  0  0  0  0  0  0  0  0
    3.7750   -4.1792    0.0000 C   0  0  0  0  0  0  0  0  0  0  0  0
    4.9292   -5.0167    0.0000 C   0  0  0  0  0  0  0  0  0  0  0  0
    9.5167   -2.5167    0.0000 O   0  0  0  0  0  0  0  0  0  0  0  0
    3.6167   -5.5917    0.0000 C   0  0  0  0  0  0  0  0  0  0  0  0
    4.4417   -5.6875    0.0000 C   0  0  0  0  0  0  0  0  0  0  0  0
    3.2875   -4.8375    0.0000 C   0  0  0  0  0  0  0  0  0  0  0  0
    3.1292   -6.2542    0.0000 O   0  0  0  0  0  0  0  0  0  0  0  0
    8.8500   -4.0292    0.0000 C   0  0  0  0  0  0  0  0  0  0  0  0
    8.5042   -4.7792    0.0000 C   0  0  0  0  0  0  0  0  0  0  0  0
    7.6917   -4.8625    0.0000 C   0  0  0  0  0  0  0  0  0  0  0  0
    2.3125   -6.1667    0.0000 C   0  0  0  0  0  0  0  0  0  0  0  0
  2  1  2  0
  3  1  1  0
  4  3  1  0
  5  2  1  0
  6  2  1  0
  7  9  1  0
  8  1  1  0
  9 13  2  0
 10  3  2  0
 11  5  2  0
 12  6  1  0
 13 12  1  0
 14  7  2  0
 15  8  2  0
 16  8  1  0
 17  7  1  0
 18 19  1  0
 19 16  2  0
 20 15  1  0
 21 18  1  0
 22 23  2  0
 23 24  1  0
 24 12  2  0
 25 21  1  0
  5  4  1  0
 20 18  2  0
  9 22  1  0
M  END
>  <ACTIVITY>  (92) 
214

$$$$

     RDKit          2D

 25 27  0  0  0  0  0  0  0  0999 V2000
    5.0792   -3.6000    0.0000 C   0  0  0  0  0  0  0  0  0  0  0  0
    5.9042   -3.6042    0.0000 C   0  0  0  0  0  0  0  0  0  0  0  0
    4.8250   -2.8250    0.0000 C   0  0  0  0  0  0  0  0  0  0  0  0
    5.4917   -2.3417    0.0000 N   0  0  0  0  0  0  0  0  0  0  0  0
    6.1625   -2.8250    0.0000 C   0  0  0  0  0  0  0  0  0  0  0  0
    6.3875   -4.2750    0.0000 N   0  0  0  0  0  0  0  0  0  0  0  0
    8.8500   -4.0292    0.0000 C   0  0  0  0  0  0  0  0  0  0  0  0
    8.5042   -4.7792    0.0000 C   0  0  0  0  0  0  0  0  0  0  0  0
    8.3625   -3.3542    0.0000 C   0  0  0  0  0  0  0  0  0  0  0  0
    7.2042   -4.1917    0.0000 C   0  0  0  0  0  0  0  0  0  0  0  0
    4.5917   -4.2542    0.0000 C   0  0  0  0  0  0  0  0  0  0  0  0
    7.6917   -4.8625    0.0000 C   0  0  0  0  0  0  0  0  0  0  0  0
    7.5417   -3.4417    0.0000 C   0  0  0  0  0  0  0  0  0  0  0  0
    4.2042   -2.5000    0.0000 O   0  0  0  0  0  0  0  0  0  0  0  0
    6.9500   -2.5750    0.0000 O   0  0  0  0  0  0  0  0  0  0  0  0
    4.9292   -5.0167    0.0000 C   0  0  0  0  0  0  0  0  0  0  0  0
    3.7750   -4.1792    0.0000 C   0  0  0  0  0  0  0  0  0  0  0  0
    8.7667   -2.6417    0.0000 Cl  0  0  0  0  0  0  0  0  0  0  0  0
    9.0917   -5.3625    0.0000 Cl  0  0  0  0  0  0  0  0  0  0  0  0
    9.6667   -3.9417    0.0000 O   0  0  0  0  0  0  0  0  0  0  0  0
    3.6167   -5.5917    0.0000 C   0  0  0  0  0  0  0  0  0  0  0  0
    3.2875   -4.8375    0.0000 C   0  0  0  0  0  0  0  0  0  0  0  0
    4.4417   -5.6875    0.0000 C   0  0  0  0  0  0  0  0  0  0  0  0
    3.1292   -6.2542    0.0000 O   0  0  0  0  0  0  0  0  0  0  0  0
    2.3125   -6.1667    0.0000 C   0  0  0  0  0  0  0  0  0  0  0  0
  2  1  2  0
  3  1  1  0
  4  3  1  0
  5  2  1  0
  6  2  1  0
  7  9  2  0
  8 12  2  0
  9 13  1  0
 10  6  1  0
 11  1  1  0
 12 10  1  0
 13 10  2  0
 14  3  2  0
 15  5  2  0
 16 11  2  0
 17 11  1  0
 18  9  1  0
 19  8  1  0
 20  7  1  0
 21 22  1  0
 22 17  2  0
 23 16  1  0
 24 21  1  0
 25 24  1  0
  5  4  1  0
 21 23  2  0
  8  7  1  0
M  END
>  <ACTIVITY>  (93) 
83

$$$$

     RDKit          2D

 23 25  0  0  0  0  0  0  0  0999 V2000
    5.0792   -3.6000    0.0000 C   0  0  0  0  0  0  0  0  0  0  0  0
    5.9042   -3.6042    0.0000 C   0  0  0  0  0  0  0  0  0  0  0  0
    4.8250   -2.8250    0.0000 C   0  0  0  0  0  0  0  0  0  0  0  0
    5.4917   -2.3417    0.0000 N   0  0  0  0  0  0  0  0  0  0  0  0
    6.1625   -2.8250    0.0000 C   0  0  0  0  0  0  0  0  0  0  0  0
    6.3875   -4.2750    0.0000 N   0  0  0  0  0  0  0  0  0  0  0  0
    4.5917   -4.2542    0.0000 C   0  0  0  0  0  0  0  0  0  0  0  0
    4.2042   -2.5000    0.0000 O   0  0  0  0  0  0  0  0  0  0  0  0
    6.9500   -2.5750    0.0000 O   0  0  0  0  0  0  0  0  0  0  0  0
    7.2042   -4.1917    0.0000 C   0  0  0  0  0  0  0  0  0  0  0  0
    7.5417   -3.4417    0.0000 C   0  0  0  0  0  0  0  0  0  0  0  0
    4.9292   -5.0167    0.0000 C   0  0  0  0  0  0  0  0  0  0  0  0
    3.7750   -4.1792    0.0000 C   0  0  0  0  0  0  0  0  0  0  0  0
    8.3625   -3.3542    0.0000 C   0  0  0  0  0  0  0  0  0  0  0  0
    3.6167   -5.5917    0.0000 C   0  0  0  0  0  0  0  0  0  0  0  0
    3.2875   -4.8375    0.0000 C   0  0  0  0  0  0  0  0  0  0  0  0
    4.4417   -5.6875    0.0000 C   0  0  0  0  0  0  0  0  0  0  0  0
    8.6917   -2.6042    0.0000 O   0  0  0  0  0  0  0  0  0  0  0  0
    3.1292   -6.2542    0.0000 O   0  0  0  0  0  0  0  0  0  0  0  0
    8.5042   -4.7792    0.0000 C   0  0  0  0  0  0  0  0  0  0  0  0
    7.6917   -4.8625    0.0000 C   0  0  0  0  0  0  0  0  0  0  0  0
    8.8500   -4.0292    0.0000 C   0  0  0  0  0  0  0  0  0  0  0  0
    2.3125   -6.1667    0.0000 C   0  0  0  0  0  0  0  0  0  0  0  0
  2  1  2  0
  3  1  1  0
  4  3  1  0
  5  2  1  0
  6  2  1  0
  7  1  1  0
  8  3  2  0
  9  5  2  0
 10  6  1  0
 11 10  2  0
 12  7  2  0
 13  7  1  0
 14 11  1  0
 15 16  1  0
 16 13  2  0
 17 12  1  0
 18 14  1  0
 19 15  1  0
 20 21  2  0
 21 10  1  0
 22 20  1  0
 23 19  1  0
  5  4  1  0
 15 17  2  0
 14 22  2  0
M  END
>  <ACTIVITY>  (94) 
481

$$$$

     RDKit          2D

 23 25  0  0  0  0  0  0  0  0999 V2000
    2.5292   -2.5750    0.0000 C   0  0  0  0  0  0  0  0  0  0  0  0
    3.3500   -2.5167    0.0000 C   0  0  0  0  0  0  0  0  0  0  0  0
    2.2250   -1.8042    0.0000 C   0  0  0  0  0  0  0  0  0  0  0  0
    2.8542   -1.2792    0.0000 N   0  0  0  0  0  0  0  0  0  0  0  0
    3.5542   -1.7167    0.0000 C   0  0  0  0  0  0  0  0  0  0  0  0
    3.8750   -3.1542    0.0000 N   0  0  0  0  0  0  0  0  0  0  0  0
    2.0875   -3.2667    0.0000 C   0  0  0  0  0  0  0  0  0  0  0  0
    1.5792   -1.5542    0.0000 O   0  0  0  0  0  0  0  0  0  0  0  0
    4.3250   -1.4167    0.0000 O   0  0  0  0  0  0  0  0  0  0  0  0
    4.6917   -3.0167    0.0000 C   0  0  0  0  0  0  0  0  0  0  0  0
    4.9667   -2.2417    0.0000 C   0  0  0  0  0  0  0  0  0  0  0  0
    2.4667   -4.0042    0.0000 C   0  0  0  0  0  0  0  0  0  0  0  0
    1.2625   -3.2375    0.0000 C   0  0  0  0  0  0  0  0  0  0  0  0
    5.7792   -2.1042    0.0000 C   0  0  0  0  0  0  0  0  0  0  0  0
    1.2000   -4.6667    0.0000 C   0  0  0  0  0  0  0  0  0  0  0  0
    0.8167   -3.9292    0.0000 C   0  0  0  0  0  0  0  0  0  0  0  0
    2.0250   -4.7042    0.0000 C   0  0  0  0  0  0  0  0  0  0  0  0
    5.9917   -1.3042    0.0000 Cl  0  0  0  0  0  0  0  0  0  0  0  0
    0.7542   -5.3542    0.0000 O   0  0  0  0  0  0  0  0  0  0  0  0
    6.0250   -3.5167    0.0000 C   0  0  0  0  0  0  0  0  0  0  0  0
    5.2125   -3.6542    0.0000 C   0  0  0  0  0  0  0  0  0  0  0  0
    6.3125   -2.7417    0.0000 C   0  0  0  0  0  0  0  0  0  0  0  0
   -0.0708   -5.3167    0.0000 C   0  0  0  0  0  0  0  0  0  0  0  0
  2  1  2  0
  3  1  1  0
  4  3  1  0
  5  2  1  0
  6  2  1  0
  7  1  1  0
  8  3  2  0
  9  5  2  0
 10  6  1  0
 11 10  2  0
 12  7  2  0
 13  7  1  0
 14 11  1  0
 15 16  1  0
 16 13  2  0
 17 12  1  0
 18 14  1  0
 19 15  1  0
 20 21  2  0
 21 10  1  0
 22 20  1  0
 23 19  1  0
  5  4  1  0
 15 17  2  0
 14 22  2  0
M  END
>  <ACTIVITY>  (95) 
156

$$$$

     RDKit          2D

 22 24  0  0  0  0  0  0  0  0999 V2000
    2.3417   -2.2792    0.0000 C   0  0  0  0  0  0  0  0  0  0  0  0
    3.1667   -2.2917    0.0000 C   0  0  0  0  0  0  0  0  0  0  0  0
    2.0792   -1.5042    0.0000 C   0  0  0  0  0  0  0  0  0  0  0  0
    2.7542   -1.0250    0.0000 N   0  0  0  0  0  0  0  0  0  0  0  0
    3.4167   -1.5042    0.0000 C   0  0  0  0  0  0  0  0  0  0  0  0
    3.6417   -2.9542    0.0000 N   0  0  0  0  0  0  0  0  0  0  0  0
    1.8542   -2.9417    0.0000 C   0  0  0  0  0  0  0  0  0  0  0  0
    1.4667   -1.1792    0.0000 O   0  0  0  0  0  0  0  0  0  0  0  0
    4.2042   -1.2542    0.0000 O   0  0  0  0  0  0  0  0  0  0  0  0
    2.1917   -3.7042    0.0000 C   0  0  0  0  0  0  0  0  0  0  0  0
    1.0292   -2.8625    0.0000 C   0  0  0  0  0  0  0  0  0  0  0  0
    4.4667   -2.8750    0.0000 C   0  0  0  0  0  0  0  0  0  0  0  0
    0.8792   -4.2792    0.0000 C   0  0  0  0  0  0  0  0  0  0  0  0
    0.5417   -3.5167    0.0000 C   0  0  0  0  0  0  0  0  0  0  0  0
    1.7000   -4.3667    0.0000 C   0  0  0  0  0  0  0  0  0  0  0  0
    0.3917   -4.9417    0.0000 O   0  0  0  0  0  0  0  0  0  0  0  0
    4.8042   -2.1292    0.0000 C   0  0  0  0  0  0  0  0  0  0  0  0
    4.9500   -3.5417    0.0000 C   0  0  0  0  0  0  0  0  0  0  0  0
   -0.4333   -4.8500    0.0000 C   0  0  0  0  0  0  0  0  0  0  0  0
    5.6167   -2.0417    0.0000 C   0  0  0  0  0  0  0  0  0  0  0  0
    5.7667   -3.4625    0.0000 C   0  0  0  0  0  0  0  0  0  0  0  0
    6.1042   -2.7125    0.0000 C   0  0  0  0  0  0  0  0  0  0  0  0
  2  1  2  0
  3  1  1  0
  4  3  1  0
  5  2  1  0
  6  2  1  0
  7  1  1  0
  8  3  2  0
  9  5  2  0
 10  7  2  0
 11  7  1  0
 12  6  1  0
 13 14  1  0
 14 11  2  0
 15 10  1  0
 16 13  1  0
 17 12  2  0
 18 12  1  0
 19 16  1  0
 20 17  1  0
 21 18  2  0
 22 21  1  0
  5  4  1  0
 15 13  2  0
 20 22  2  0
M  END
>  <ACTIVITY>  (96) 
390

$$$$

     RDKit          2D

 23 25  0  0  0  0  0  0  0  0999 V2000
    5.0792   -3.6000    0.0000 C   0  0  0  0  0  0  0  0  0  0  0  0
    5.9042   -3.6042    0.0000 C   0  0  0  0  0  0  0  0  0  0  0  0
    4.8250   -2.8250    0.0000 C   0  0  0  0  0  0  0  0  0  0  0  0
    5.4917   -2.3417    0.0000 N   0  0  0  0  0  0  0  0  0  0  0  0
    6.1625   -2.8250    0.0000 C   0  0  0  0  0  0  0  0  0  0  0  0
    6.3875   -4.2750    0.0000 N   0  0  0  0  0  0  0  0  0  0  0  0
    4.5917   -4.2542    0.0000 C   0  0  0  0  0  0  0  0  0  0  0  0
    4.2042   -2.5000    0.0000 O   0  0  0  0  0  0  0  0  0  0  0  0
    6.9500   -2.5750    0.0000 O   0  0  0  0  0  0  0  0  0  0  0  0
    4.9292   -5.0167    0.0000 C   0  0  0  0  0  0  0  0  0  0  0  0
    3.7750   -4.1792    0.0000 C   0  0  0  0  0  0  0  0  0  0  0  0
    7.2042   -4.1917    0.0000 C   0  0  0  0  0  0  0  0  0  0  0  0
    8.8500   -4.0292    0.0000 C   0  0  0  0  0  0  0  0  0  0  0  0
    3.6167   -5.5917    0.0000 C   0  0  0  0  0  0  0  0  0  0  0  0
    9.6667   -3.9417    0.0000 S   0  0  0  0  0  0  0  0  0  0  0  0
    3.2875   -4.8375    0.0000 C   0  0  0  0  0  0  0  0  0  0  0  0
    4.4417   -5.6875    0.0000 C   0  0  0  0  0  0  0  0  0  0  0  0
    3.2042   -6.3042    0.0000 Cl  0  0  0  0  0  0  0  0  0  0  0  0
    7.6917   -4.8625    0.0000 C   0  0  0  0  0  0  0  0  0  0  0  0
    7.5417   -3.4417    0.0000 C   0  0  0  0  0  0  0  0  0  0  0  0
    8.3625   -3.3542    0.0000 C   0  0  0  0  0  0  0  0  0  0  0  0
    8.5042   -4.7792    0.0000 C   0  0  0  0  0  0  0  0  0  0  0  0
   10.1542   -4.6125    0.0000 C   0  0  0  0  0  0  0  0  0  0  0  0
  2  1  2  0
  3  1  1  0
  4  3  1  0
  5  2  1  0
  6  2  1  0
  7  1  1  0
  8  3  2  0
  9  5  2  0
 10  7  2  0
 11  7  1  0
 12  6  1  0
 13 21  2  0
 14 16  1  0
 15 13  1  0
 16 11  2  0
 17 10  1  0
 18 14  1  0
 19 12  1  0
 20 12  2  0
 21 20  1  0
 22 19  2  0
 23 15  1  0
  5  4  1  0
 14 17  2  0
 22 13  1  0
M  END
>  <ACTIVITY>  (97) 
529

$$$$

     RDKit          2D

 25 27  0  0  0  0  0  0  0  0999 V2000
   -1.4289    2.4750    0.0000 O   0  0  0  0  0  0  0  0  0  0  0  0
   -0.7145    2.0625    0.0000 C   0  0  0  0  0  0  0  0  0  0  0  0
    0.0000    2.4750    0.0000 O   0  0  0  0  0  0  0  0  0  0  0  0
   -0.7145    1.2375    0.0000 C   0  0  0  0  0  0  0  0  0  0  0  0
    0.0000    0.8250    0.0000 C   0  0  0  0  0  0  0  0  0  0  0  0
    0.0000    0.0000    0.0000 C   0  0  0  0  0  0  0  0  0  0  0  0
    0.7145   -0.4125    0.0000 N   0  0  0  0  0  0  0  0  0  0  0  0
    0.7145   -1.2375    0.0000 C   0  0  0  0  0  0  0  0  0  0  0  0
    1.3819   -1.7224    0.0000 C   0  0  0  0  0  0  0  0  0  0  0  0
    1.1270   -2.5070    0.0000 C   0  0  0  0  0  0  0  0  0  0  0  0
    1.6119   -3.1745    0.0000 O   0  0  0  0  0  0  0  0  0  0  0  0
    0.3020   -2.5070    0.0000 N   0  0  0  0  0  0  0  0  0  0  0  0
    0.0470   -1.7224    0.0000 C   0  0  0  0  0  0  0  0  0  0  0  0
   -0.7376   -1.4675    0.0000 O   0  0  0  0  0  0  0  0  0  0  0  0
    2.1665   -1.4675    0.0000 C   0  0  0  0  0  0  0  0  0  0  0  0
    2.3381   -0.6605    0.0000 C   0  0  0  0  0  0  0  0  0  0  0  0
    3.1227   -0.4056    0.0000 C   0  0  0  0  0  0  0  0  0  0  0  0
    3.7358   -0.9576    0.0000 C   0  0  0  0  0  0  0  0  0  0  0  0
    4.5204   -0.7027    0.0000 Cl  0  0  0  0  0  0  0  0  0  0  0  0
    3.5642   -1.7646    0.0000 C   0  0  0  0  0  0  0  0  0  0  0  0
    2.7796   -2.0195    0.0000 C   0  0  0  0  0  0  0  0  0  0  0  0
   -0.7145   -0.4125    0.0000 C   0  0  0  0  0  0  0  0  0  0  0  0
   -1.4289    0.0000    0.0000 C   0  0  0  0  0  0  0  0  0  0  0  0
   -1.4289    0.8250    0.0000 C   0  0  0  0  0  0  0  0  0  0  0  0
   -2.1434    1.2375    0.0000 Cl  0  0  0  0  0  0  0  0  0  0  0  0
  1  2  1  0
  2  3  2  0
  2  4  1  0
  4  5  2  0
  5  6  1  0
  6  7  1  0
  7  8  1  0
  8  9  2  0
  9 10  1  0
 10 11  2  0
 10 12  1  0
 12 13  1  0
  8 13  1  0
 13 14  2  0
  9 15  1  0
 15 16  2  0
 16 17  1  0
 17 18  2  0
 18 19  1  0
 18 20  1  0
 20 21  2  0
 15 21  1  0
  6 22  2  0
 22 23  1  0
 23 24  2  0
  4 24  1  0
 24 25  1  0
M  END
>  <ACTIVITY>  (98) 
109

$$$$

     RDKit          2D

 24 26  0  0  0  0  0  0  0  0999 V2000
    5.0792   -3.6000    0.0000 C   0  0  0  0  0  0  0  0  0  0  0  0
    5.9042   -3.6042    0.0000 C   0  0  0  0  0  0  0  0  0  0  0  0
    4.8250   -2.8250    0.0000 C   0  0  0  0  0  0  0  0  0  0  0  0
    5.4917   -2.3417    0.0000 N   0  0  0  0  0  0  0  0  0  0  0  0
    6.1625   -2.8250    0.0000 C   0  0  0  0  0  0  0  0  0  0  0  0
    6.3875   -4.2750    0.0000 N   0  0  0  0  0  0  0  0  0  0  0  0
    8.6917   -2.6042    0.0000 C   0  0  0  0  0  0  0  0  0  0  0  0
    4.5917   -4.2542    0.0000 C   0  0  0  0  0  0  0  0  0  0  0  0
    8.3625   -3.3542    0.0000 C   0  0  0  0  0  0  0  0  0  0  0  0
    4.2042   -2.5000    0.0000 O   0  0  0  0  0  0  0  0  0  0  0  0
    6.9500   -2.5750    0.0000 O   0  0  0  0  0  0  0  0  0  0  0  0
    7.2042   -4.1917    0.0000 C   0  0  0  0  0  0  0  0  0  0  0  0
    7.5417   -3.4417    0.0000 C   0  0  0  0  0  0  0  0  0  0  0  0
    8.2125   -1.9375    0.0000 O   0  0  0  0  0  0  0  0  0  0  0  0
    3.7750   -4.1792    0.0000 C   0  0  0  0  0  0  0  0  0  0  0  0
    4.9292   -5.0167    0.0000 C   0  0  0  0  0  0  0  0  0  0  0  0
    9.5167   -2.5167    0.0000 O   0  0  0  0  0  0  0  0  0  0  0  0
    3.6167   -5.5917    0.0000 C   0  0  0  0  0  0  0  0  0  0  0  0
    4.4417   -5.6875    0.0000 C   0  0  0  0  0  0  0  0  0  0  0  0
    3.2875   -4.8375    0.0000 C   0  0  0  0  0  0  0  0  0  0  0  0
    3.2042   -6.3042    0.0000 Cl  0  0  0  0  0  0  0  0  0  0  0  0
    8.8500   -4.0292    0.0000 C   0  0  0  0  0  0  0  0  0  0  0  0
    8.5042   -4.7792    0.0000 C   0  0  0  0  0  0  0  0  0  0  0  0
    7.6917   -4.8625    0.0000 C   0  0  0  0  0  0  0  0  0  0  0  0
  2  1  2  0
  3  1  1  0
  4  3  1  0
  5  2  1  0
  6  2  1  0
  7  9  1  0
  8  1  1  0
  9 13  2  0
 10  3  2  0
 11  5  2  0
 12  6  1  0
 13 12  1  0
 14  7  2  0
 15  8  2  0
 16  8  1  0
 17  7  1  0
 18 19  1  0
 19 16  2  0
 20 15  1  0
 21 18  1  0
 22 23  2  0
 23 24  1  0
 24 12  2  0
  5  4  1  0
 20 18  2  0
  9 22  1  0
M  END
>  <ACTIVITY>  (99) 
186

$$$$

     RDKit          2D

 24 26  0  0  0  0  0  0  0  0999 V2000
    5.0792   -3.6000    0.0000 C   0  0  0  0  0  0  0  0  0  0  0  0
    5.9042   -3.6042    0.0000 C   0  0  0  0  0  0  0  0  0  0  0  0
    4.8250   -2.8250    0.0000 C   0  0  0  0  0  0  0  0  0  0  0  0
    5.4917   -2.3417    0.0000 N   0  0  0  0  0  0  0  0  0  0  0  0
    6.1625   -2.8250    0.0000 C   0  0  0  0  0  0  0  0  0  0  0  0
    6.3875   -4.2750    0.0000 N   0  0  0  0  0  0  0  0  0  0  0  0
    8.8500   -4.0292    0.0000 C   0  0  0  0  0  0  0  0  0  0  0  0
    8.5042   -4.7792    0.0000 C   0  0  0  0  0  0  0  0  0  0  0  0
    8.3625   -3.3542    0.0000 C   0  0  0  0  0  0  0  0  0  0  0  0
    7.2042   -4.1917    0.0000 C   0  0  0  0  0  0  0  0  0  0  0  0
    4.5917   -4.2542    0.0000 C   0  0  0  0  0  0  0  0  0  0  0  0
    7.6917   -4.8625    0.0000 C   0  0  0  0  0  0  0  0  0  0  0  0
    7.5417   -3.4417    0.0000 C   0  0  0  0  0  0  0  0  0  0  0  0
    4.2042   -2.5000    0.0000 O   0  0  0  0  0  0  0  0  0  0  0  0
    6.9500   -2.5750    0.0000 O   0  0  0  0  0  0  0  0  0  0  0  0
    4.9292   -5.0167    0.0000 C   0  0  0  0  0  0  0  0  0  0  0  0
    3.7750   -4.1792    0.0000 C   0  0  0  0  0  0  0  0  0  0  0  0
    8.7667   -2.6417    0.0000 Cl  0  0  0  0  0  0  0  0  0  0  0  0
    9.0917   -5.3625    0.0000 Cl  0  0  0  0  0  0  0  0  0  0  0  0
    9.6667   -3.9417    0.0000 O   0  0  0  0  0  0  0  0  0  0  0  0
    3.6167   -5.5917    0.0000 C   0  0  0  0  0  0  0  0  0  0  0  0
    3.2875   -4.8375    0.0000 C   0  0  0  0  0  0  0  0  0  0  0  0
    4.4417   -5.6875    0.0000 C   0  0  0  0  0  0  0  0  0  0  0  0
    3.2042   -6.3042    0.0000 Cl  0  0  0  0  0  0  0  0  0  0  0  0
  2  1  2  0
  3  1  1  0
  4  3  1  0
  5  2  1  0
  6  2  1  0
  7  9  2  0
  8 12  2  0
  9 13  1  0
 10  6  1  0
 11  1  1  0
 12 10  1  0
 13 10  2  0
 14  3  2  0
 15  5  2  0
 16 11  2  0
 17 11  1  0
 18  9  1  0
 19  8  1  0
 20  7  1  0
 21 22  1  0
 22 17  2  0
 23 16  1  0
 24 21  1  0
  5  4  1  0
 21 23  2  0
  8  7  1  0
M  END
>  <ACTIVITY>  (100) 
91

$$$$

     RDKit          2D

 23 25  0  0  0  0  0  0  0  0999 V2000
    5.0792   -3.6000    0.0000 C   0  0  0  0  0  0  0  0  0  0  0  0
    5.9042   -3.6042    0.0000 C   0  0  0  0  0  0  0  0  0  0  0  0
    4.8250   -2.8250    0.0000 C   0  0  0  0  0  0  0  0  0  0  0  0
    5.4917   -2.3417    0.0000 N   0  0  0  0  0  0  0  0  0  0  0  0
    6.1625   -2.8250    0.0000 C   0  0  0  0  0  0  0  0  0  0  0  0
    6.3875   -4.2750    0.0000 N   0  0  0  0  0  0  0  0  0  0  0  0
    4.5917   -4.2542    0.0000 C   0  0  0  0  0  0  0  0  0  0  0  0
    8.3625   -3.3542    0.0000 C   0  0  0  0  0  0  0  0  0  0  0  0
    7.5417   -3.4417    0.0000 C   0  0  0  0  0  0  0  0  0  0  0  0
    4.2042   -2.5000    0.0000 O   0  0  0  0  0  0  0  0  0  0  0  0
    7.2042   -4.1917    0.0000 C   0  0  0  0  0  0  0  0  0  0  0  0
    6.9500   -2.5750    0.0000 O   0  0  0  0  0  0  0  0  0  0  0  0
    8.8500   -4.0292    0.0000 C   0  0  0  0  0  0  0  0  0  0  0  0
    4.9292   -5.0167    0.0000 C   0  0  0  0  0  0  0  0  0  0  0  0
    3.7750   -4.1792    0.0000 C   0  0  0  0  0  0  0  0  0  0  0  0
    8.5042   -4.7792    0.0000 C   0  0  0  0  0  0  0  0  0  0  0  0
    8.7667   -2.6417    0.0000 Cl  0  0  0  0  0  0  0  0  0  0  0  0
    7.6917   -4.8625    0.0000 C   0  0  0  0  0  0  0  0  0  0  0  0
    3.6167   -5.5917    0.0000 C   0  0  0  0  0  0  0  0  0  0  0  0
    3.2875   -4.8375    0.0000 C   0  0  0  0  0  0  0  0  0  0  0  0
    4.4417   -5.6875    0.0000 C   0  0  0  0  0  0  0  0  0  0  0  0
    3.2042   -6.3042    0.0000 Cl  0  0  0  0  0  0  0  0  0  0  0  0
    9.6667   -3.9417    0.0000 O   0  0  0  0  0  0  0  0  0  0  0  0
  2  1  2  0
  3  1  1  0
  4  3  1  0
  5  2  1  0
  6  2  1  0
  7  1  1  0
  8  9  2  0
  9 11  1  0
 10  3  2  0
 11  6  1  0
 12  5  2  0
 13 16  2  0
 14  7  2  0
 15  7  1  0
 16 18  1  0
 17  8  1  0
 18 11  2  0
 19 20  1  0
 20 15  2  0
 21 14  1  0
 22 19  1  0
 23 13  1  0
  5  4  1  0
 19 21  2  0
  8 13  1  0
M  END
>  <ACTIVITY>  (101) 
173

$$$$

     RDKit          2D

 22 24  0  0  0  0  0  0  0  0999 V2000
    5.0792   -3.6000    0.0000 C   0  0  0  0  0  0  0  0  0  0  0  0
    5.9042   -3.6042    0.0000 C   0  0  0  0  0  0  0  0  0  0  0  0
    4.8250   -2.8250    0.0000 C   0  0  0  0  0  0  0  0  0  0  0  0
    5.4917   -2.3417    0.0000 N   0  0  0  0  0  0  0  0  0  0  0  0
    6.1625   -2.8250    0.0000 C   0  0  0  0  0  0  0  0  0  0  0  0
    6.3875   -4.2750    0.0000 N   0  0  0  0  0  0  0  0  0  0  0  0
    4.5917   -4.2542    0.0000 C   0  0  0  0  0  0  0  0  0  0  0  0
    4.2042   -2.5000    0.0000 O   0  0  0  0  0  0  0  0  0  0  0  0
    6.9500   -2.5750    0.0000 O   0  0  0  0  0  0  0  0  0  0  0  0
    4.9292   -5.0167    0.0000 C   0  0  0  0  0  0  0  0  0  0  0  0
    3.7750   -4.1792    0.0000 C   0  0  0  0  0  0  0  0  0  0  0  0
    7.2042   -4.1917    0.0000 C   0  0  0  0  0  0  0  0  0  0  0  0
    3.6167   -5.5917    0.0000 C   0  0  0  0  0  0  0  0  0  0  0  0
    8.8500   -4.0292    0.0000 C   0  0  0  0  0  0  0  0  0  0  0  0
    4.4417   -5.6875    0.0000 C   0  0  0  0  0  0  0  0  0  0  0  0
    3.2875   -4.8375    0.0000 C   0  0  0  0  0  0  0  0  0  0  0  0
    3.2042   -6.3042    0.0000 Cl  0  0  0  0  0  0  0  0  0  0  0  0
    7.5417   -3.4417    0.0000 C   0  0  0  0  0  0  0  0  0  0  0  0
    7.6917   -4.8625    0.0000 C   0  0  0  0  0  0  0  0  0  0  0  0
    8.5042   -4.7792    0.0000 C   0  0  0  0  0  0  0  0  0  0  0  0
    8.3625   -3.3542    0.0000 C   0  0  0  0  0  0  0  0  0  0  0  0
    9.6667   -3.9417    0.0000 O   0  0  0  0  0  0  0  0  0  0  0  0
  2  1  2  0
  3  1  1  0
  4  3  1  0
  5  2  1  0
  6  2  1  0
  7  1  1  0
  8  3  2  0
  9  5  2  0
 10  7  2  0
 11  7  1  0
 12  6  1  0
 13 16  1  0
 14 20  2  0
 15 10  1  0
 16 11  2  0
 17 13  1  0
 18 12  1  0
 19 12  2  0
 20 19  1  0
 21 18  2  0
 22 14  1  0
  5  4  1  0
 13 15  2  0
 21 14  1  0
M  END
>  <ACTIVITY>  (102) 
317

$$$$

     RDKit          2D

 22 24  0  0  0  0  0  0  0  0999 V2000
    5.0792   -3.6000    0.0000 C   0  0  0  0  0  0  0  0  0  0  0  0
    5.9042   -3.6042    0.0000 C   0  0  0  0  0  0  0  0  0  0  0  0
    4.8250   -2.8250    0.0000 C   0  0  0  0  0  0  0  0  0  0  0  0
    5.4917   -2.3417    0.0000 N   0  0  0  0  0  0  0  0  0  0  0  0
    6.1625   -2.8250    0.0000 C   0  0  0  0  0  0  0  0  0  0  0  0
    6.3875   -4.2750    0.0000 N   0  0  0  0  0  0  0  0  0  0  0  0
    4.5917   -4.2542    0.0000 C   0  0  0  0  0  0  0  0  0  0  0  0
    4.2042   -2.5000    0.0000 O   0  0  0  0  0  0  0  0  0  0  0  0
    6.9500   -2.5750    0.0000 O   0  0  0  0  0  0  0  0  0  0  0  0
    7.2042   -4.1917    0.0000 C   0  0  0  0  0  0  0  0  0  0  0  0
    7.5417   -3.4417    0.0000 C   0  0  0  0  0  0  0  0  0  0  0  0
    4.9292   -5.0167    0.0000 C   0  0  0  0  0  0  0  0  0  0  0  0
    3.7750   -4.1792    0.0000 C   0  0  0  0  0  0  0  0  0  0  0  0
    8.3625   -3.3542    0.0000 C   0  0  0  0  0  0  0  0  0  0  0  0
    3.6167   -5.5917    0.0000 C   0  0  0  0  0  0  0  0  0  0  0  0
    3.2875   -4.8375    0.0000 C   0  0  0  0  0  0  0  0  0  0  0  0
    4.4417   -5.6875    0.0000 C   0  0  0  0  0  0  0  0  0  0  0  0
    3.2042   -6.3042    0.0000 Cl  0  0  0  0  0  0  0  0  0  0  0  0
    8.6917   -2.6042    0.0000 O   0  0  0  0  0  0  0  0  0  0  0  0
    8.5042   -4.7792    0.0000 C   0  0  0  0  0  0  0  0  0  0  0  0
    7.6917   -4.8625    0.0000 C   0  0  0  0  0  0  0  0  0  0  0  0
    8.8500   -4.0292    0.0000 C   0  0  0  0  0  0  0  0  0  0  0  0
  2  1  2  0
  3  1  1  0
  4  3  1  0
  5  2  1  0
  6  2  1  0
  7  1  1  0
  8  3  2  0
  9  5  2  0
 10  6  1  0
 11 10  2  0
 12  7  2  0
 13  7  1  0
 14 11  1  0
 15 16  1  0
 16 13  2  0
 17 12  1  0
 18 15  1  0
 19 14  1  0
 20 21  2  0
 21 10  1  0
 22 20  1  0
  5  4  1  0
 15 17  2  0
 14 22  2  0
M  END
>  <ACTIVITY>  (103) 
407

$$$$

     RDKit          2D

 22 24  0  0  0  0  0  0  0  0999 V2000
    2.3417   -2.2792    0.0000 C   0  0  0  0  0  0  0  0  0  0  0  0
    3.1667   -2.2917    0.0000 C   0  0  0  0  0  0  0  0  0  0  0  0
    2.0792   -1.5042    0.0000 C   0  0  0  0  0  0  0  0  0  0  0  0
    2.7542   -1.0250    0.0000 N   0  0  0  0  0  0  0  0  0  0  0  0
    3.4167   -1.5042    0.0000 C   0  0  0  0  0  0  0  0  0  0  0  0
    3.6417   -2.9542    0.0000 N   0  0  0  0  0  0  0  0  0  0  0  0
    1.8542   -2.9417    0.0000 C   0  0  0  0  0  0  0  0  0  0  0  0
    1.4667   -1.1792    0.0000 O   0  0  0  0  0  0  0  0  0  0  0  0
    4.2042   -1.2542    0.0000 O   0  0  0  0  0  0  0  0  0  0  0  0
    4.4667   -2.8750    0.0000 C   0  0  0  0  0  0  0  0  0  0  0  0
    4.8042   -2.1292    0.0000 C   0  0  0  0  0  0  0  0  0  0  0  0
    2.1917   -3.7042    0.0000 C   0  0  0  0  0  0  0  0  0  0  0  0
    1.0292   -2.8625    0.0000 C   0  0  0  0  0  0  0  0  0  0  0  0
    5.6167   -2.0417    0.0000 C   0  0  0  0  0  0  0  0  0  0  0  0
    0.8792   -4.2792    0.0000 C   0  0  0  0  0  0  0  0  0  0  0  0
    0.5417   -3.5167    0.0000 C   0  0  0  0  0  0  0  0  0  0  0  0
    1.7000   -4.3667    0.0000 C   0  0  0  0  0  0  0  0  0  0  0  0
    6.0292   -1.3250    0.0000 Cl  0  0  0  0  0  0  0  0  0  0  0  0
    0.2917   -4.8625    0.0000 Cl  0  0  0  0  0  0  0  0  0  0  0  0
    5.7667   -3.4625    0.0000 C   0  0  0  0  0  0  0  0  0  0  0  0
    4.9500   -3.5417    0.0000 C   0  0  0  0  0  0  0  0  0  0  0  0
    6.1042   -2.7125    0.0000 C   0  0  0  0  0  0  0  0  0  0  0  0
  2  1  2  0
  3  1  1  0
  4  3  1  0
  5  2  1  0
  6  2  1  0
  7  1  1  0
  8  3  2  0
  9  5  2  0
 10  6  1  0
 11 10  2  0
 12  7  2  0
 13  7  1  0
 14 11  1  0
 15 16  1  0
 16 13  2  0
 17 12  1  0
 18 14  1  0
 19 15  1  0
 20 21  2  0
 21 10  1  0
 22 20  1  0
  5  4  1  0
 17 15  2  0
 14 22  2  0
M  END
>  <ACTIVITY>  (104) 
447

$$$$

     RDKit          2D

 21 23  0  0  0  0  0  0  0  0999 V2000
    2.3417   -2.2792    0.0000 C   0  0  0  0  0  0  0  0  0  0  0  0
    3.1667   -2.2917    0.0000 C   0  0  0  0  0  0  0  0  0  0  0  0
    2.0792   -1.5042    0.0000 C   0  0  0  0  0  0  0  0  0  0  0  0
    2.7542   -1.0250    0.0000 N   0  0  0  0  0  0  0  0  0  0  0  0
    3.4167   -1.5042    0.0000 C   0  0  0  0  0  0  0  0  0  0  0  0
    3.6417   -2.9542    0.0000 N   0  0  0  0  0  0  0  0  0  0  0  0
    1.8542   -2.9417    0.0000 C   0  0  0  0  0  0  0  0  0  0  0  0
    1.4667   -1.1792    0.0000 O   0  0  0  0  0  0  0  0  0  0  0  0
    4.2042   -1.2542    0.0000 O   0  0  0  0  0  0  0  0  0  0  0  0
    2.1917   -3.7042    0.0000 C   0  0  0  0  0  0  0  0  0  0  0  0
    1.0292   -2.8625    0.0000 C   0  0  0  0  0  0  0  0  0  0  0  0
    4.4667   -2.8750    0.0000 C   0  0  0  0  0  0  0  0  0  0  0  0
    0.8792   -4.2792    0.0000 C   0  0  0  0  0  0  0  0  0  0  0  0
    0.5417   -3.5167    0.0000 C   0  0  0  0  0  0  0  0  0  0  0  0
    1.7000   -4.3667    0.0000 C   0  0  0  0  0  0  0  0  0  0  0  0
    0.4625   -4.9917    0.0000 Cl  0  0  0  0  0  0  0  0  0  0  0  0
    4.8042   -2.1292    0.0000 C   0  0  0  0  0  0  0  0  0  0  0  0
    4.9500   -3.5417    0.0000 C   0  0  0  0  0  0  0  0  0  0  0  0
    5.7667   -3.4625    0.0000 C   0  0  0  0  0  0  0  0  0  0  0  0
    5.6167   -2.0417    0.0000 C   0  0  0  0  0  0  0  0  0  0  0  0
    6.1042   -2.7125    0.0000 C   0  0  0  0  0  0  0  0  0  0  0  0
  2  1  2  0
  3  1  1  0
  4  3  1  0
  5  2  1  0
  6  2  1  0
  7  1  1  0
  8  3  2  0
  9  5  2  0
 10  7  2  0
 11  7  1  0
 12  6  1  0
 13 14  1  0
 14 11  2  0
 15 10  1  0
 16 13  1  0
 17 12  2  0
 18 12  1  0
 19 18  2  0
 20 17  1  0
 21 19  1  0
  5  4  1  0
 15 13  2  0
 20 21  2  0
M  END
>  <ACTIVITY>  (105) 
514

$$$$

     RDKit          2D

 25 27  0  0  0  0  0  0  0  0999 V2000
    5.0792   -3.6000    0.0000 C   0  0  0  0  0  0  0  0  0  0  0  0
    5.9042   -3.6042    0.0000 C   0  0  0  0  0  0  0  0  0  0  0  0
    4.8250   -2.8250    0.0000 C   0  0  0  0  0  0  0  0  0  0  0  0
    5.4917   -2.3417    0.0000 N   0  0  0  0  0  0  0  0  0  0  0  0
    6.1625   -2.8250    0.0000 C   0  0  0  0  0  0  0  0  0  0  0  0
    2.4667   -4.7417    0.0000 N   0  0  0  0  0  0  0  0  0  0  0  0
    4.5917   -4.2542    0.0000 C   0  0  0  0  0  0  0  0  0  0  0  0
    6.3875   -4.2750    0.0000 N   0  0  0  0  0  0  0  0  0  0  0  0
    3.2875   -4.8375    0.0000 C   0  0  0  0  0  0  0  0  0  0  0  0
    3.7750   -4.1792    0.0000 C   0  0  0  0  0  0  0  0  0  0  0  0
    2.1292   -3.9875    0.0000 O   0  0  0  0  0  0  0  0  0  0  0  0
    4.2042   -2.5000    0.0000 O   0  0  0  0  0  0  0  0  0  0  0  0
    1.9750   -5.4042    0.0000 O   0  0  0  0  0  0  0  0  0  0  0  0
    6.9500   -2.5750    0.0000 O   0  0  0  0  0  0  0  0  0  0  0  0
    7.2042   -4.1917    0.0000 C   0  0  0  0  0  0  0  0  0  0  0  0
    8.8500   -4.0292    0.0000 C   0  0  0  0  0  0  0  0  0  0  0  0
    9.6667   -3.9417    0.0000 S   0  0  0  0  0  0  0  0  0  0  0  0
    4.9292   -5.0167    0.0000 C   0  0  0  0  0  0  0  0  0  0  0  0
    7.6917   -4.8625    0.0000 C   0  0  0  0  0  0  0  0  0  0  0  0
    7.5417   -3.4417    0.0000 C   0  0  0  0  0  0  0  0  0  0  0  0
    8.3625   -3.3542    0.0000 C   0  0  0  0  0  0  0  0  0  0  0  0
    8.5042   -4.7792    0.0000 C   0  0  0  0  0  0  0  0  0  0  0  0
    3.6167   -5.5917    0.0000 C   0  0  0  0  0  0  0  0  0  0  0  0
    4.4417   -5.6875    0.0000 C   0  0  0  0  0  0  0  0  0  0  0  0
   10.1542   -4.6125    0.0000 C   0  0  0  0  0  0  0  0  0  0  0  0
  2  1  2  0
  3  1  1  0
  4  3  1  0
  5  2  1  0
  6  9  1  0
  7  1  1  0
  8  2  1  0
  9 10  2  0
 10  7  1  0
 11  6  1  0
 12  3  2  0
 13  6  2  0
 14  5  2  0
 15  8  1  0
 16 21  2  0
 17 16  1  0
 18  7  2  0
 19 15  1  0
 20 15  2  0
 21 20  1  0
 22 19  2  0
 23 24  2  0
 24 18  1  0
 25 17  1  0
  5  4  1  0
  9 23  1  0
 22 16  1  0
M  CHG  2   6   1  11  -1
M  END
>  <ACTIVITY>  (106) 
152

$$$$

     RDKit          2D

 27 29  0  0  0  0  0  0  0  0999 V2000
    2.5292   -2.5750    0.0000 C   0  0  0  0  0  0  0  0  0  0  0  0
    3.3500   -2.5167    0.0000 C   0  0  0  0  0  0  0  0  0  0  0  0
    2.2250   -1.8042    0.0000 C   0  0  0  0  0  0  0  0  0  0  0  0
    2.8542   -1.2792    0.0000 N   0  0  0  0  0  0  0  0  0  0  0  0
    3.5542   -1.7167    0.0000 C   0  0  0  0  0  0  0  0  0  0  0  0
   -0.0083   -3.8917    0.0000 N   0  0  0  0  0  0  0  0  0  0  0  0
    5.7792   -2.1042    0.0000 C   0  0  0  0  0  0  0  0  0  0  0  0
    2.0875   -3.2667    0.0000 C   0  0  0  0  0  0  0  0  0  0  0  0
    3.8750   -3.1542    0.0000 N   0  0  0  0  0  0  0  0  0  0  0  0
    5.9917   -1.3042    0.0000 C   0  0  0  0  0  0  0  0  0  0  0  0
    0.8167   -3.9292    0.0000 C   0  0  0  0  0  0  0  0  0  0  0  0
    1.2625   -3.2375    0.0000 C   0  0  0  0  0  0  0  0  0  0  0  0
    6.3125   -2.7417    0.0000 C   0  0  0  0  0  0  0  0  0  0  0  0
    4.9667   -2.2417    0.0000 C   0  0  0  0  0  0  0  0  0  0  0  0
   -0.3875   -3.1542    0.0000 O   0  0  0  0  0  0  0  0  0  0  0  0
    1.5792   -1.5542    0.0000 O   0  0  0  0  0  0  0  0  0  0  0  0
   -0.4583   -4.5875    0.0000 O   0  0  0  0  0  0  0  0  0  0  0  0
    4.3250   -1.4167    0.0000 O   0  0  0  0  0  0  0  0  0  0  0  0
    4.6917   -3.0167    0.0000 C   0  0  0  0  0  0  0  0  0  0  0  0
    6.7792   -1.0792    0.0000 O   0  0  0  0  0  0  0  0  0  0  0  0
    6.0250   -3.5167    0.0000 C   0  0  0  0  0  0  0  0  0  0  0  0
    5.4000   -0.7250    0.0000 O   0  0  0  0  0  0  0  0  0  0  0  0
    5.2125   -3.6542    0.0000 C   0  0  0  0  0  0  0  0  0  0  0  0
    7.1042   -2.5250    0.0000 Cl  0  0  0  0  0  0  0  0  0  0  0  0
    2.4667   -4.0042    0.0000 C   0  0  0  0  0  0  0  0  0  0  0  0
    1.2000   -4.6667    0.0000 C   0  0  0  0  0  0  0  0  0  0  0  0
    2.0250   -4.7042    0.0000 C   0  0  0  0  0  0  0  0  0  0  0  0
  2  1  2  0
  3  1  1  0
  4  3  1  0
  5  2  1  0
  6 11  1  0
  7 14  2  0
  8  1  1  0
  9  2  1  0
 10  7  1  0
 11 12  2  0
 12  8  1  0
 13 21  2  0
 14 19  1  0
 15  6  1  0
 16  3  2  0
 17  6  2  0
 18  5  2  0
 19  9  1  0
 20 10  2  0
 21 23  1  0
 22 10  1  0
 23 19  2  0
 24 13  1  0
 25  8  2  0
 26 27  2  0
 27 25  1  0
  5  4  1  0
 11 26  1  0
  7 13  1  0
M  CHG  2   6   1  15  -1
M  END
>  <ACTIVITY>  (107) 
26

$$$$

     RDKit          2D

 26 28  0  0  0  0  0  0  0  0999 V2000
    5.0792   -3.6000    0.0000 C   0  0  0  0  0  0  0  0  0  0  0  0
    5.9042   -3.6042    0.0000 C   0  0  0  0  0  0  0  0  0  0  0  0
    4.8250   -2.8250    0.0000 C   0  0  0  0  0  0  0  0  0  0  0  0
    5.4917   -2.3417    0.0000 N   0  0  0  0  0  0  0  0  0  0  0  0
    6.1625   -2.8250    0.0000 C   0  0  0  0  0  0  0  0  0  0  0  0
    2.4667   -4.7417    0.0000 N   0  0  0  0  0  0  0  0  0  0  0  0
    4.5917   -4.2542    0.0000 C   0  0  0  0  0  0  0  0  0  0  0  0
    6.3875   -4.2750    0.0000 N   0  0  0  0  0  0  0  0  0  0  0  0
    3.2875   -4.8375    0.0000 C   0  0  0  0  0  0  0  0  0  0  0  0
    8.6917   -2.6042    0.0000 C   0  0  0  0  0  0  0  0  0  0  0  0
    3.7750   -4.1792    0.0000 C   0  0  0  0  0  0  0  0  0  0  0  0
    8.3625   -3.3542    0.0000 C   0  0  0  0  0  0  0  0  0  0  0  0
    2.1292   -3.9875    0.0000 O   0  0  0  0  0  0  0  0  0  0  0  0
    4.2042   -2.5000    0.0000 O   0  0  0  0  0  0  0  0  0  0  0  0
    1.9750   -5.4042    0.0000 O   0  0  0  0  0  0  0  0  0  0  0  0
    6.9500   -2.5750    0.0000 O   0  0  0  0  0  0  0  0  0  0  0  0
    7.2042   -4.1917    0.0000 C   0  0  0  0  0  0  0  0  0  0  0  0
    7.5417   -3.4417    0.0000 C   0  0  0  0  0  0  0  0  0  0  0  0
    8.2125   -1.9375    0.0000 O   0  0  0  0  0  0  0  0  0  0  0  0
    9.5167   -2.5167    0.0000 O   0  0  0  0  0  0  0  0  0  0  0  0
    4.9292   -5.0167    0.0000 C   0  0  0  0  0  0  0  0  0  0  0  0
    3.6167   -5.5917    0.0000 C   0  0  0  0  0  0  0  0  0  0  0  0
    8.8500   -4.0292    0.0000 C   0  0  0  0  0  0  0  0  0  0  0  0
    4.4417   -5.6875    0.0000 C   0  0  0  0  0  0  0  0  0  0  0  0
    8.5042   -4.7792    0.0000 C   0  0  0  0  0  0  0  0  0  0  0  0
    7.6917   -4.8625    0.0000 C   0  0  0  0  0  0  0  0  0  0  0  0
  2  1  2  0
  3  1  1  0
  4  3  1  0
  5  2  1  0
  6  9  1  0
  7  1  1  0
  8  2  1  0
  9 11  2  0
 10 12  1  0
 11  7  1  0
 12 18  2  0
 13  6  1  0
 14  3  2  0
 15  6  2  0
 16  5  2  0
 17  8  1  0
 18 17  1  0
 19 10  2  0
 20 10  1  0
 21  7  2  0
 22 24  2  0
 23 25  2  0
 24 21  1  0
 25 26  1  0
 26 17  2  0
  5  4  1  0
  9 22  1  0
 12 23  1  0
M  CHG  2   6   1  13  -1
M  END
>  <ACTIVITY>  (108) 
79

$$$$

     RDKit          2D

 26 28  0  0  0  0  0  0  0  0999 V2000
   -2.1434    1.2375    0.0000 O   0  0  0  0  0  0  0  0  0  0  0  0
   -1.4289    0.8250    0.0000 C   0  0  0  0  0  0  0  0  0  0  0  0
   -0.7145    1.2375    0.0000 C   0  0  0  0  0  0  0  0  0  0  0  0
   -0.7145    2.0625    0.0000 Cl  0  0  0  0  0  0  0  0  0  0  0  0
    0.0000    0.8250    0.0000 C   0  0  0  0  0  0  0  0  0  0  0  0
    0.0000    0.0000    0.0000 C   0  0  0  0  0  0  0  0  0  0  0  0
    0.7145   -0.4125    0.0000 N   0  0  0  0  0  0  0  0  0  0  0  0
    0.7145   -1.2375    0.0000 C   0  0  0  0  0  0  0  0  0  0  0  0
    1.3819   -1.7224    0.0000 C   0  0  0  0  0  0  0  0  0  0  0  0
    1.1270   -2.5070    0.0000 C   0  0  0  0  0  0  0  0  0  0  0  0
    1.6119   -3.1745    0.0000 O   0  0  0  0  0  0  0  0  0  0  0  0
    0.3020   -2.5070    0.0000 N   0  0  0  0  0  0  0  0  0  0  0  0
    0.0470   -1.7224    0.0000 C   0  0  0  0  0  0  0  0  0  0  0  0
   -0.7376   -1.4675    0.0000 O   0  0  0  0  0  0  0  0  0  0  0  0
    2.1665   -1.4675    0.0000 C   0  0  0  0  0  0  0  0  0  0  0  0
    2.3381   -0.6605    0.0000 C   0  0  0  0  0  0  0  0  0  0  0  0
    3.1227   -0.4056    0.0000 C   0  0  0  0  0  0  0  0  0  0  0  0
    3.7358   -0.9576    0.0000 C   0  0  0  0  0  0  0  0  0  0  0  0
    3.5642   -1.7646    0.0000 C   0  0  0  0  0  0  0  0  0  0  0  0
    2.7796   -2.0195    0.0000 C   0  0  0  0  0  0  0  0  0  0  0  0
    4.1773   -2.3166    0.0000 N   0  0  0  0  0  0  0  0  0  0  0  0
    4.9620   -2.0617    0.0000 O   0  0  0  0  0  0  0  0  0  0  0  0
    4.0058   -3.1236    0.0000 O   0  0  0  0  0  0  0  0  0  0  0  0
   -0.7145   -0.4125    0.0000 C   0  0  0  0  0  0  0  0  0  0  0  0
   -1.4289    0.0000    0.0000 C   0  0  0  0  0  0  0  0  0  0  0  0
   -2.1434   -0.4125    0.0000 Cl  0  0  0  0  0  0  0  0  0  0  0  0
  1  2  1  0
  2  3  2  0
  3  4  1  0
  3  5  1  0
  5  6  2  0
  6  7  1  0
  7  8  1  0
  8  9  2  0
  9 10  1  0
 10 11  2  0
 10 12  1  0
 12 13  1  0
  8 13  1  0
 13 14  2  0
  9 15  1  0
 15 16  2  0
 16 17  1  0
 17 18  2  0
 18 19  1  0
 19 20  2  0
 15 20  1  0
 19 21  1  0
 21 22  1  0
 21 23  2  0
  6 24  1  0
 24 25  2  0
  2 25  1  0
 25 26  1  0
M  CHG  2  21   1  22  -1
M  END
>  <ACTIVITY>  (109) 
20

$$$$

     RDKit          2D

 25 27  0  0  0  0  0  0  0  0999 V2000
    5.0792   -3.6000    0.0000 C   0  0  0  0  0  0  0  0  0  0  0  0
    5.9042   -3.6042    0.0000 C   0  0  0  0  0  0  0  0  0  0  0  0
    4.8250   -2.8250    0.0000 C   0  0  0  0  0  0  0  0  0  0  0  0
    5.4917   -2.3417    0.0000 N   0  0  0  0  0  0  0  0  0  0  0  0
    6.1625   -2.8250    0.0000 C   0  0  0  0  0  0  0  0  0  0  0  0
    2.4667   -4.7417    0.0000 N   0  0  0  0  0  0  0  0  0  0  0  0
    4.5917   -4.2542    0.0000 C   0  0  0  0  0  0  0  0  0  0  0  0
    6.3875   -4.2750    0.0000 N   0  0  0  0  0  0  0  0  0  0  0  0
    3.2875   -4.8375    0.0000 C   0  0  0  0  0  0  0  0  0  0  0  0
    3.7750   -4.1792    0.0000 C   0  0  0  0  0  0  0  0  0  0  0  0
    8.3625   -3.3542    0.0000 C   0  0  0  0  0  0  0  0  0  0  0  0
    7.5417   -3.4417    0.0000 C   0  0  0  0  0  0  0  0  0  0  0  0
    2.1292   -3.9875    0.0000 O   0  0  0  0  0  0  0  0  0  0  0  0
    4.2042   -2.5000    0.0000 O   0  0  0  0  0  0  0  0  0  0  0  0
    7.2042   -4.1917    0.0000 C   0  0  0  0  0  0  0  0  0  0  0  0
    1.9750   -5.4042    0.0000 O   0  0  0  0  0  0  0  0  0  0  0  0
    6.9500   -2.5750    0.0000 O   0  0  0  0  0  0  0  0  0  0  0  0
    8.8500   -4.0292    0.0000 C   0  0  0  0  0  0  0  0  0  0  0  0
    8.5042   -4.7792    0.0000 C   0  0  0  0  0  0  0  0  0  0  0  0
    8.7667   -2.6417    0.0000 Cl  0  0  0  0  0  0  0  0  0  0  0  0
    7.6917   -4.8625    0.0000 C   0  0  0  0  0  0  0  0  0  0  0  0
    4.9292   -5.0167    0.0000 C   0  0  0  0  0  0  0  0  0  0  0  0
    9.6667   -3.9417    0.0000 O   0  0  0  0  0  0  0  0  0  0  0  0
    3.6167   -5.5917    0.0000 C   0  0  0  0  0  0  0  0  0  0  0  0
    4.4417   -5.6875    0.0000 C   0  0  0  0  0  0  0  0  0  0  0  0
  2  1  2  0
  3  1  1  0
  4  3  1  0
  5  2  1  0
  6  9  1  0
  7  1  1  0
  8  2  1  0
  9 10  2  0
 10  7  1  0
 11 12  2  0
 12 15  1  0
 13  6  1  0
 14  3  2  0
 15  8  1  0
 16  6  2  0
 17  5  2  0
 18 19  2  0
 19 21  1  0
 20 11  1  0
 21 15  2  0
 22  7  2  0
 23 18  1  0
 24 25  2  0
 25 22  1  0
  5  4  1  0
  9 24  1  0
 11 18  1  0
M  CHG  2   6   1  13  -1
M  END
>  <ACTIVITY>  (110) 
59

$$$$

     RDKit          2D

 24 26  0  0  0  0  0  0  0  0999 V2000
    5.0792   -3.6000    0.0000 C   0  0  0  0  0  0  0  0  0  0  0  0
    5.9042   -3.6042    0.0000 C   0  0  0  0  0  0  0  0  0  0  0  0
    4.8250   -2.8250    0.0000 C   0  0  0  0  0  0  0  0  0  0  0  0
    5.4917   -2.3417    0.0000 N   0  0  0  0  0  0  0  0  0  0  0  0
    6.1625   -2.8250    0.0000 C   0  0  0  0  0  0  0  0  0  0  0  0
    2.4667   -4.7417    0.0000 N   0  0  0  0  0  0  0  0  0  0  0  0
    4.5917   -4.2542    0.0000 C   0  0  0  0  0  0  0  0  0  0  0  0
    6.3875   -4.2750    0.0000 N   0  0  0  0  0  0  0  0  0  0  0  0
    3.2875   -4.8375    0.0000 C   0  0  0  0  0  0  0  0  0  0  0  0
    3.7750   -4.1792    0.0000 C   0  0  0  0  0  0  0  0  0  0  0  0
    2.1292   -3.9875    0.0000 O   0  0  0  0  0  0  0  0  0  0  0  0
    4.2042   -2.5000    0.0000 O   0  0  0  0  0  0  0  0  0  0  0  0
    1.9750   -5.4042    0.0000 O   0  0  0  0  0  0  0  0  0  0  0  0
    6.9500   -2.5750    0.0000 O   0  0  0  0  0  0  0  0  0  0  0  0
    7.2042   -4.1917    0.0000 C   0  0  0  0  0  0  0  0  0  0  0  0
    8.8500   -4.0292    0.0000 C   0  0  0  0  0  0  0  0  0  0  0  0
    4.9292   -5.0167    0.0000 C   0  0  0  0  0  0  0  0  0  0  0  0
    7.5417   -3.4417    0.0000 C   0  0  0  0  0  0  0  0  0  0  0  0
    7.6917   -4.8625    0.0000 C   0  0  0  0  0  0  0  0  0  0  0  0
    8.5042   -4.7792    0.0000 C   0  0  0  0  0  0  0  0  0  0  0  0
    8.3625   -3.3542    0.0000 C   0  0  0  0  0  0  0  0  0  0  0  0
    9.6667   -3.9417    0.0000 O   0  0  0  0  0  0  0  0  0  0  0  0
    3.6167   -5.5917    0.0000 C   0  0  0  0  0  0  0  0  0  0  0  0
    4.4417   -5.6875    0.0000 C   0  0  0  0  0  0  0  0  0  0  0  0
  2  1  2  0
  3  1  1  0
  4  3  1  0
  5  2  1  0
  6  9  1  0
  7  1  1  0
  8  2  1  0
  9 10  2  0
 10  7  1  0
 11  6  1  0
 12  3  2  0
 13  6  2  0
 14  5  2  0
 15  8  1  0
 16 20  2  0
 17  7  2  0
 18 15  1  0
 19 15  2  0
 20 19  1  0
 21 18  2  0
 22 16  1  0
 23 24  2  0
 24 17  1  0
  5  4  1  0
  9 23  1  0
 21 16  1  0
M  CHG  2   6   1  11  -1
M  END
>  <ACTIVITY>  (111) 
123

$$$$

     RDKit          2D

 24 26  0  0  0  0  0  0  0  0999 V2000
    5.0792   -3.6000    0.0000 C   0  0  0  0  0  0  0  0  0  0  0  0
    5.9042   -3.6042    0.0000 C   0  0  0  0  0  0  0  0  0  0  0  0
    4.8250   -2.8250    0.0000 C   0  0  0  0  0  0  0  0  0  0  0  0
    5.4917   -2.3417    0.0000 N   0  0  0  0  0  0  0  0  0  0  0  0
    6.1625   -2.8250    0.0000 C   0  0  0  0  0  0  0  0  0  0  0  0
    2.4667   -4.7417    0.0000 N   0  0  0  0  0  0  0  0  0  0  0  0
    4.5917   -4.2542    0.0000 C   0  0  0  0  0  0  0  0  0  0  0  0
    6.3875   -4.2750    0.0000 N   0  0  0  0  0  0  0  0  0  0  0  0
    3.2875   -4.8375    0.0000 C   0  0  0  0  0  0  0  0  0  0  0  0
    3.7750   -4.1792    0.0000 C   0  0  0  0  0  0  0  0  0  0  0  0
    2.1292   -3.9875    0.0000 O   0  0  0  0  0  0  0  0  0  0  0  0
    4.2042   -2.5000    0.0000 O   0  0  0  0  0  0  0  0  0  0  0  0
    1.9750   -5.4042    0.0000 O   0  0  0  0  0  0  0  0  0  0  0  0
    6.9500   -2.5750    0.0000 O   0  0  0  0  0  0  0  0  0  0  0  0
    7.2042   -4.1917    0.0000 C   0  0  0  0  0  0  0  0  0  0  0  0
    7.5417   -3.4417    0.0000 C   0  0  0  0  0  0  0  0  0  0  0  0
    8.3625   -3.3542    0.0000 C   0  0  0  0  0  0  0  0  0  0  0  0
    4.9292   -5.0167    0.0000 C   0  0  0  0  0  0  0  0  0  0  0  0
    8.6917   -2.6042    0.0000 O   0  0  0  0  0  0  0  0  0  0  0  0
    3.6167   -5.5917    0.0000 C   0  0  0  0  0  0  0  0  0  0  0  0
    4.4417   -5.6875    0.0000 C   0  0  0  0  0  0  0  0  0  0  0  0
    8.5042   -4.7792    0.0000 C   0  0  0  0  0  0  0  0  0  0  0  0
    7.6917   -4.8625    0.0000 C   0  0  0  0  0  0  0  0  0  0  0  0
    8.8500   -4.0292    0.0000 C   0  0  0  0  0  0  0  0  0  0  0  0
  2  1  2  0
  3  1  1  0
  4  3  1  0
  5  2  1  0
  6  9  1  0
  7  1  1  0
  8  2  1  0
  9 10  2  0
 10  7  1  0
 11  6  1  0
 12  3  2  0
 13  6  2  0
 14  5  2  0
 15  8  1  0
 16 15  2  0
 17 16  1  0
 18  7  2  0
 19 17  1  0
 20 21  2  0
 21 18  1  0
 22 23  2  0
 23 15  1  0
 24 22  1  0
  5  4  1  0
  9 20  1  0
 17 24  2  0
M  CHG  2   6   1  11  -1
M  END
>  <ACTIVITY>  (112) 
236

$$$$

     RDKit          2D

 24 26  0  0  0  0  0  0  0  0999 V2000
    2.3417   -2.2792    0.0000 C   0  0  0  0  0  0  0  0  0  0  0  0
    3.1667   -2.2917    0.0000 C   0  0  0  0  0  0  0  0  0  0  0  0
    2.0792   -1.5042    0.0000 C   0  0  0  0  0  0  0  0  0  0  0  0
    2.7542   -1.0250    0.0000 N   0  0  0  0  0  0  0  0  0  0  0  0
    3.4167   -1.5042    0.0000 C   0  0  0  0  0  0  0  0  0  0  0  0
   -0.2750   -3.4250    0.0000 N   0  0  0  0  0  0  0  0  0  0  0  0
    1.8542   -2.9417    0.0000 C   0  0  0  0  0  0  0  0  0  0  0  0
    3.6417   -2.9542    0.0000 N   0  0  0  0  0  0  0  0  0  0  0  0
    0.5417   -3.5167    0.0000 C   0  0  0  0  0  0  0  0  0  0  0  0
    1.0292   -2.8625    0.0000 C   0  0  0  0  0  0  0  0  0  0  0  0
   -0.6083   -2.6667    0.0000 O   0  0  0  0  0  0  0  0  0  0  0  0
    1.4667   -1.1792    0.0000 O   0  0  0  0  0  0  0  0  0  0  0  0
   -0.7708   -4.0875    0.0000 O   0  0  0  0  0  0  0  0  0  0  0  0
    4.2042   -1.2542    0.0000 O   0  0  0  0  0  0  0  0  0  0  0  0
    4.4667   -2.8750    0.0000 C   0  0  0  0  0  0  0  0  0  0  0  0
    4.8042   -2.1292    0.0000 C   0  0  0  0  0  0  0  0  0  0  0  0
    5.6167   -2.0417    0.0000 C   0  0  0  0  0  0  0  0  0  0  0  0
    2.1917   -3.7042    0.0000 C   0  0  0  0  0  0  0  0  0  0  0  0
    6.0292   -1.3250    0.0000 Cl  0  0  0  0  0  0  0  0  0  0  0  0
    0.8792   -4.2792    0.0000 C   0  0  0  0  0  0  0  0  0  0  0  0
    1.7000   -4.3667    0.0000 C   0  0  0  0  0  0  0  0  0  0  0  0
    5.7667   -3.4625    0.0000 C   0  0  0  0  0  0  0  0  0  0  0  0
    4.9500   -3.5417    0.0000 C   0  0  0  0  0  0  0  0  0  0  0  0
    6.1042   -2.7125    0.0000 C   0  0  0  0  0  0  0  0  0  0  0  0
  2  1  2  0
  3  1  1  0
  4  3  1  0
  5  2  1  0
  6  9  1  0
  7  1  1  0
  8  2  1  0
  9 10  2  0
 10  7  1  0
 11  6  1  0
 12  3  2  0
 13  6  2  0
 14  5  2  0
 15  8  1  0
 16 15  2  0
 17 16  1  0
 18  7  2  0
 19 17  1  0
 20 21  2  0
 21 18  1  0
 22 23  2  0
 23 15  1  0
 24 22  1  0
  5  4  1  0
  9 20  1  0
 17 24  2  0
M  CHG  2   6   1  11  -1
M  END
>  <ACTIVITY>  (113) 
70

$$$$

     RDKit          2D

 23 25  0  0  0  0  0  0  0  0999 V2000
    2.3417   -2.2792    0.0000 C   0  0  0  0  0  0  0  0  0  0  0  0
    3.1667   -2.2917    0.0000 C   0  0  0  0  0  0  0  0  0  0  0  0
    2.0792   -1.5042    0.0000 C   0  0  0  0  0  0  0  0  0  0  0  0
    2.7542   -1.0250    0.0000 N   0  0  0  0  0  0  0  0  0  0  0  0
    3.4167   -1.5042    0.0000 C   0  0  0  0  0  0  0  0  0  0  0  0
   -0.2750   -3.4250    0.0000 N   0  0  0  0  0  0  0  0  0  0  0  0
    1.8542   -2.9417    0.0000 C   0  0  0  0  0  0  0  0  0  0  0  0
    3.6417   -2.9542    0.0000 N   0  0  0  0  0  0  0  0  0  0  0  0
    0.5417   -3.5167    0.0000 C   0  0  0  0  0  0  0  0  0  0  0  0
    1.0292   -2.8625    0.0000 C   0  0  0  0  0  0  0  0  0  0  0  0
   -0.6083   -2.6667    0.0000 O   0  0  0  0  0  0  0  0  0  0  0  0
    1.4667   -1.1792    0.0000 O   0  0  0  0  0  0  0  0  0  0  0  0
   -0.7708   -4.0875    0.0000 O   0  0  0  0  0  0  0  0  0  0  0  0
    4.2042   -1.2542    0.0000 O   0  0  0  0  0  0  0  0  0  0  0  0
    4.4667   -2.8750    0.0000 C   0  0  0  0  0  0  0  0  0  0  0  0
    2.1917   -3.7042    0.0000 C   0  0  0  0  0  0  0  0  0  0  0  0
    0.8792   -4.2792    0.0000 C   0  0  0  0  0  0  0  0  0  0  0  0
    1.7000   -4.3667    0.0000 C   0  0  0  0  0  0  0  0  0  0  0  0
    4.8042   -2.1292    0.0000 C   0  0  0  0  0  0  0  0  0  0  0  0
    4.9500   -3.5417    0.0000 C   0  0  0  0  0  0  0  0  0  0  0  0
    5.7667   -3.4625    0.0000 C   0  0  0  0  0  0  0  0  0  0  0  0
    5.6167   -2.0417    0.0000 C   0  0  0  0  0  0  0  0  0  0  0  0
    6.1042   -2.7125    0.0000 C   0  0  0  0  0  0  0  0  0  0  0  0
  2  1  2  0
  3  1  1  0
  4  3  1  0
  5  2  1  0
  6  9  1  0
  7  1  1  0
  8  2  1  0
  9 10  2  0
 10  7  1  0
 11  6  1  0
 12  3  2  0
 13  6  2  0
 14  5  2  0
 15  8  1  0
 16  7  2  0
 17 18  2  0
 18 16  1  0
 19 15  2  0
 20 15  1  0
 21 20  2  0
 22 19  1  0
 23 21  1  0
  5  4  1  0
  9 17  1  0
 22 23  2  0
M  CHG  2   6   1  11  -1
M  END
>  <ACTIVITY>  (114) 
141

$$$$

     RDKit          2D

 24 26  0  0  0  0  0  0  0  0999 V2000
    5.0792   -3.6000    0.0000 C   0  0  0  0  0  0  0  0  0  0  0  0
    5.9042   -3.6042    0.0000 C   0  0  0  0  0  0  0  0  0  0  0  0
    4.8250   -2.8250    0.0000 C   0  0  0  0  0  0  0  0  0  0  0  0
    5.4917   -2.3417    0.0000 N   0  0  0  0  0  0  0  0  0  0  0  0
    6.1625   -2.8250    0.0000 C   0  0  0  0  0  0  0  0  0  0  0  0
    4.5917   -4.2542    0.0000 C   0  0  0  0  0  0  0  0  0  0  0  0
    6.3875   -4.2750    0.0000 N   0  0  0  0  0  0  0  0  0  0  0  0
    4.2042   -2.5000    0.0000 O   0  0  0  0  0  0  0  0  0  0  0  0
    6.9500   -2.5750    0.0000 O   0  0  0  0  0  0  0  0  0  0  0  0
    3.7750   -4.1792    0.0000 C   0  0  0  0  0  0  0  0  0  0  0  0
    7.2042   -4.1917    0.0000 C   0  0  0  0  0  0  0  0  0  0  0  0
    8.8500   -4.0292    0.0000 C   0  0  0  0  0  0  0  0  0  0  0  0
    3.2875   -4.8375    0.0000 C   0  0  0  0  0  0  0  0  0  0  0  0
    9.6667   -3.9417    0.0000 S   0  0  0  0  0  0  0  0  0  0  0  0
    4.9292   -5.0167    0.0000 C   0  0  0  0  0  0  0  0  0  0  0  0
    7.5417   -3.4417    0.0000 C   0  0  0  0  0  0  0  0  0  0  0  0
    7.6917   -4.8625    0.0000 C   0  0  0  0  0  0  0  0  0  0  0  0
    8.5042   -4.7792    0.0000 C   0  0  0  0  0  0  0  0  0  0  0  0
    8.3625   -3.3542    0.0000 C   0  0  0  0  0  0  0  0  0  0  0  0
    2.4667   -4.7417    0.0000 O   0  0  0  0  0  0  0  0  0  0  0  0
    4.4417   -5.6875    0.0000 C   0  0  0  0  0  0  0  0  0  0  0  0
    3.6167   -5.5917    0.0000 C   0  0  0  0  0  0  0  0  0  0  0  0
   10.1542   -4.6125    0.0000 C   0  0  0  0  0  0  0  0  0  0  0  0
    2.1417   -3.9875    0.0000 C   0  0  0  0  0  0  0  0  0  0  0  0
  2  1  2  0
  3  1  1  0
  4  3  1  0
  5  2  1  0
  6  1  1  0
  7  2  1  0
  8  3  2  0
  9  5  2  0
 10  6  2  0
 11  7  1  0
 12 18  2  0
 13 10  1  0
 14 12  1  0
 15  6  1  0
 16 11  1  0
 17 11  2  0
 18 17  1  0
 19 16  2  0
 20 13  1  0
 21 15  2  0
 22 21  1  0
 23 14  1  0
 24 20  1  0
  5  4  1  0
 13 22  2  0
 19 12  1  0
M  END
>  <ACTIVITY>  (115) 
203

$$$$

     RDKit          2D

 26 28  0  0  0  0  0  0  0  0999 V2000
    5.0792   -3.6000    0.0000 C   0  0  0  0  0  0  0  0  0  0  0  0
    5.9042   -3.6042    0.0000 C   0  0  0  0  0  0  0  0  0  0  0  0
    4.8250   -2.8250    0.0000 C   0  0  0  0  0  0  0  0  0  0  0  0
    5.4917   -2.3417    0.0000 N   0  0  0  0  0  0  0  0  0  0  0  0
    6.1625   -2.8250    0.0000 C   0  0  0  0  0  0  0  0  0  0  0  0
    8.3625   -3.3542    0.0000 C   0  0  0  0  0  0  0  0  0  0  0  0
    4.5917   -4.2542    0.0000 C   0  0  0  0  0  0  0  0  0  0  0  0
    6.3875   -4.2750    0.0000 N   0  0  0  0  0  0  0  0  0  0  0  0
    8.6917   -2.6042    0.0000 C   0  0  0  0  0  0  0  0  0  0  0  0
    8.8500   -4.0292    0.0000 C   0  0  0  0  0  0  0  0  0  0  0  0
    7.5417   -3.4417    0.0000 C   0  0  0  0  0  0  0  0  0  0  0  0
    4.2042   -2.5000    0.0000 O   0  0  0  0  0  0  0  0  0  0  0  0
    6.9500   -2.5750    0.0000 O   0  0  0  0  0  0  0  0  0  0  0  0
    7.2042   -4.1917    0.0000 C   0  0  0  0  0  0  0  0  0  0  0  0
    3.7750   -4.1792    0.0000 C   0  0  0  0  0  0  0  0  0  0  0  0
    8.2125   -1.9375    0.0000 O   0  0  0  0  0  0  0  0  0  0  0  0
    8.5042   -4.7792    0.0000 C   0  0  0  0  0  0  0  0  0  0  0  0
    9.5167   -2.5167    0.0000 O   0  0  0  0  0  0  0  0  0  0  0  0
    7.6917   -4.8625    0.0000 C   0  0  0  0  0  0  0  0  0  0  0  0
    3.2875   -4.8375    0.0000 C   0  0  0  0  0  0  0  0  0  0  0  0
    9.6750   -4.0292    0.0000 Cl  0  0  0  0  0  0  0  0  0  0  0  0
    4.9292   -5.0167    0.0000 C   0  0  0  0  0  0  0  0  0  0  0  0
    2.4667   -4.7417    0.0000 O   0  0  0  0  0  0  0  0  0  0  0  0
    4.4417   -5.6875    0.0000 C   0  0  0  0  0  0  0  0  0  0  0  0
    3.6167   -5.5917    0.0000 C   0  0  0  0  0  0  0  0  0  0  0  0
    2.1417   -3.9875    0.0000 C   0  0  0  0  0  0  0  0  0  0  0  0
  2  1  2  0
  3  1  1  0
  4  3  1  0
  5  2  1  0
  6 11  2  0
  7  1  1  0
  8  2  1  0
  9  6  1  0
 10 17  2  0
 11 14  1  0
 12  3  2  0
 13  5  2  0
 14  8  1  0
 15  7  2  0
 16  9  2  0
 17 19  1  0
 18  9  1  0
 19 14  2  0
 20 15  1  0
 21 10  1  0
 22  7  1  0
 23 20  1  0
 24 22  2  0
 25 24  1  0
 26 23  1  0
  5  4  1  0
 20 25  2  0
  6 10  1  0
M  END
>  <ACTIVITY>  (116) 
85

$$$$

     RDKit          2D

 25 27  0  0  0  0  0  0  0  0999 V2000
    5.0792   -3.6000    0.0000 C   0  0  0  0  0  0  0  0  0  0  0  0
    5.9042   -3.6042    0.0000 C   0  0  0  0  0  0  0  0  0  0  0  0
    4.8250   -2.8250    0.0000 C   0  0  0  0  0  0  0  0  0  0  0  0
    5.4917   -2.3417    0.0000 N   0  0  0  0  0  0  0  0  0  0  0  0
    6.1625   -2.8250    0.0000 C   0  0  0  0  0  0  0  0  0  0  0  0
    4.5917   -4.2542    0.0000 C   0  0  0  0  0  0  0  0  0  0  0  0
    6.3875   -4.2750    0.0000 N   0  0  0  0  0  0  0  0  0  0  0  0
    8.6917   -2.6042    0.0000 C   0  0  0  0  0  0  0  0  0  0  0  0
    8.3625   -3.3542    0.0000 C   0  0  0  0  0  0  0  0  0  0  0  0
    4.2042   -2.5000    0.0000 O   0  0  0  0  0  0  0  0  0  0  0  0
    6.9500   -2.5750    0.0000 O   0  0  0  0  0  0  0  0  0  0  0  0
    3.7750   -4.1792    0.0000 C   0  0  0  0  0  0  0  0  0  0  0  0
    7.2042   -4.1917    0.0000 C   0  0  0  0  0  0  0  0  0  0  0  0
    7.5417   -3.4417    0.0000 C   0  0  0  0  0  0  0  0  0  0  0  0
    8.2125   -1.9375    0.0000 O   0  0  0  0  0  0  0  0  0  0  0  0
    9.5167   -2.5167    0.0000 O   0  0  0  0  0  0  0  0  0  0  0  0
    3.2875   -4.8375    0.0000 C   0  0  0  0  0  0  0  0  0  0  0  0
    4.9292   -5.0167    0.0000 C   0  0  0  0  0  0  0  0  0  0  0  0
    2.4667   -4.7417    0.0000 O   0  0  0  0  0  0  0  0  0  0  0  0
    8.8500   -4.0292    0.0000 C   0  0  0  0  0  0  0  0  0  0  0  0
    4.4417   -5.6875    0.0000 C   0  0  0  0  0  0  0  0  0  0  0  0
    8.5042   -4.7792    0.0000 C   0  0  0  0  0  0  0  0  0  0  0  0
    7.6917   -4.8625    0.0000 C   0  0  0  0  0  0  0  0  0  0  0  0
    3.6167   -5.5917    0.0000 C   0  0  0  0  0  0  0  0  0  0  0  0
    2.1417   -3.9875    0.0000 C   0  0  0  0  0  0  0  0  0  0  0  0
  2  1  2  0
  3  1  1  0
  4  3  1  0
  5  2  1  0
  6  1  1  0
  7  2  1  0
  8  9  1  0
  9 14  2  0
 10  3  2  0
 11  5  2  0
 12  6  2  0
 13  7  1  0
 14 13  1  0
 15  8  2  0
 16  8  1  0
 17 12  1  0
 18  6  1  0
 19 17  1  0
 20 22  2  0
 21 18  2  0
 22 23  1  0
 23 13  2  0
 24 21  1  0
 25 19  1  0
  5  4  1  0
 17 24  2  0
  9 20  1  0
M  END
>  <ACTIVITY>  (117) 
195

$$$$

     RDKit          2D

 25 27  0  0  0  0  0  0  0  0999 V2000
    5.0792   -3.6000    0.0000 C   0  0  0  0  0  0  0  0  0  0  0  0
    5.9042   -3.6042    0.0000 C   0  0  0  0  0  0  0  0  0  0  0  0
    4.8250   -2.8250    0.0000 C   0  0  0  0  0  0  0  0  0  0  0  0
    5.4917   -2.3417    0.0000 N   0  0  0  0  0  0  0  0  0  0  0  0
    6.1625   -2.8250    0.0000 C   0  0  0  0  0  0  0  0  0  0  0  0
    4.5917   -4.2542    0.0000 C   0  0  0  0  0  0  0  0  0  0  0  0
    6.3875   -4.2750    0.0000 N   0  0  0  0  0  0  0  0  0  0  0  0
    8.8500   -4.0292    0.0000 C   0  0  0  0  0  0  0  0  0  0  0  0
    8.5042   -4.7792    0.0000 C   0  0  0  0  0  0  0  0  0  0  0  0
    8.3625   -3.3542    0.0000 C   0  0  0  0  0  0  0  0  0  0  0  0
    7.2042   -4.1917    0.0000 C   0  0  0  0  0  0  0  0  0  0  0  0
    7.6917   -4.8625    0.0000 C   0  0  0  0  0  0  0  0  0  0  0  0
    7.5417   -3.4417    0.0000 C   0  0  0  0  0  0  0  0  0  0  0  0
    4.2042   -2.5000    0.0000 O   0  0  0  0  0  0  0  0  0  0  0  0
    6.9500   -2.5750    0.0000 O   0  0  0  0  0  0  0  0  0  0  0  0
    3.7750   -4.1792    0.0000 C   0  0  0  0  0  0  0  0  0  0  0  0
    8.7667   -2.6417    0.0000 Cl  0  0  0  0  0  0  0  0  0  0  0  0
    9.0917   -5.3625    0.0000 Cl  0  0  0  0  0  0  0  0  0  0  0  0
    9.6667   -3.9417    0.0000 O   0  0  0  0  0  0  0  0  0  0  0  0
    3.2875   -4.8375    0.0000 C   0  0  0  0  0  0  0  0  0  0  0  0
    4.9292   -5.0167    0.0000 C   0  0  0  0  0  0  0  0  0  0  0  0
    2.4667   -4.7417    0.0000 O   0  0  0  0  0  0  0  0  0  0  0  0
    4.4417   -5.6875    0.0000 C   0  0  0  0  0  0  0  0  0  0  0  0
    3.6167   -5.5917    0.0000 C   0  0  0  0  0  0  0  0  0  0  0  0
    2.1417   -3.9875    0.0000 C   0  0  0  0  0  0  0  0  0  0  0  0
  2  1  2  0
  3  1  1  0
  4  3  1  0
  5  2  1  0
  6  1  1  0
  7  2  1  0
  8 10  2  0
  9 12  2  0
 10 13  1  0
 11  7  1  0
 12 11  1  0
 13 11  2  0
 14  3  2  0
 15  5  2  0
 16  6  2  0
 17 10  1  0
 18  9  1  0
 19  8  1  0
 20 16  1  0
 21  6  1  0
 22 20  1  0
 23 21  2  0
 24 23  1  0
 25 22  1  0
  5  4  1  0
 20 24  2  0
  9  8  1  0
M  END
>  <ACTIVITY>  (118) 
142

$$$$

     RDKit          2D

 23 25  0  0  0  0  0  0  0  0999 V2000
    5.0792   -3.6000    0.0000 C   0  0  0  0  0  0  0  0  0  0  0  0
    5.9042   -3.6042    0.0000 C   0  0  0  0  0  0  0  0  0  0  0  0
    4.8250   -2.8250    0.0000 C   0  0  0  0  0  0  0  0  0  0  0  0
    5.4917   -2.3417    0.0000 N   0  0  0  0  0  0  0  0  0  0  0  0
    6.1625   -2.8250    0.0000 C   0  0  0  0  0  0  0  0  0  0  0  0
    4.5917   -4.2542    0.0000 C   0  0  0  0  0  0  0  0  0  0  0  0
    6.3875   -4.2750    0.0000 N   0  0  0  0  0  0  0  0  0  0  0  0
    4.2042   -2.5000    0.0000 O   0  0  0  0  0  0  0  0  0  0  0  0
    6.9500   -2.5750    0.0000 O   0  0  0  0  0  0  0  0  0  0  0  0
    3.7750   -4.1792    0.0000 C   0  0  0  0  0  0  0  0  0  0  0  0
    7.2042   -4.1917    0.0000 C   0  0  0  0  0  0  0  0  0  0  0  0
    7.5417   -3.4417    0.0000 C   0  0  0  0  0  0  0  0  0  0  0  0
    8.3625   -3.3542    0.0000 C   0  0  0  0  0  0  0  0  0  0  0  0
    3.2875   -4.8375    0.0000 C   0  0  0  0  0  0  0  0  0  0  0  0
    4.9292   -5.0167    0.0000 C   0  0  0  0  0  0  0  0  0  0  0  0
    8.6917   -2.6042    0.0000 O   0  0  0  0  0  0  0  0  0  0  0  0
    2.4667   -4.7417    0.0000 O   0  0  0  0  0  0  0  0  0  0  0  0
    4.4417   -5.6875    0.0000 C   0  0  0  0  0  0  0  0  0  0  0  0
    8.5042   -4.7792    0.0000 C   0  0  0  0  0  0  0  0  0  0  0  0
    7.6917   -4.8625    0.0000 C   0  0  0  0  0  0  0  0  0  0  0  0
    8.8500   -4.0292    0.0000 C   0  0  0  0  0  0  0  0  0  0  0  0
    3.6167   -5.5917    0.0000 C   0  0  0  0  0  0  0  0  0  0  0  0
    2.1417   -3.9875    0.0000 C   0  0  0  0  0  0  0  0  0  0  0  0
  2  1  2  0
  3  1  1  0
  4  3  1  0
  5  2  1  0
  6  1  1  0
  7  2  1  0
  8  3  2  0
  9  5  2  0
 10  6  2  0
 11  7  1  0
 12 11  2  0
 13 12  1  0
 14 10  1  0
 15  6  1  0
 16 13  1  0
 17 14  1  0
 18 15  2  0
 19 20  2  0
 20 11  1  0
 21 19  1  0
 22 18  1  0
 23 17  1  0
  5  4  1  0
 14 22  2  0
 13 21  2  0
M  END
>  <ACTIVITY>  (119) 
472

$$$$

     RDKit          2D

 23 25  0  0  0  0  0  0  0  0999 V2000
    2.3417   -2.2792    0.0000 C   0  0  0  0  0  0  0  0  0  0  0  0
    3.1667   -2.2917    0.0000 C   0  0  0  0  0  0  0  0  0  0  0  0
    2.0792   -1.5042    0.0000 C   0  0  0  0  0  0  0  0  0  0  0  0
    2.7542   -1.0250    0.0000 N   0  0  0  0  0  0  0  0  0  0  0  0
    3.4167   -1.5042    0.0000 C   0  0  0  0  0  0  0  0  0  0  0  0
    1.8542   -2.9417    0.0000 C   0  0  0  0  0  0  0  0  0  0  0  0
    3.6417   -2.9542    0.0000 N   0  0  0  0  0  0  0  0  0  0  0  0
    1.4667   -1.1792    0.0000 O   0  0  0  0  0  0  0  0  0  0  0  0
    4.2042   -1.2542    0.0000 O   0  0  0  0  0  0  0  0  0  0  0  0
    1.0292   -2.8625    0.0000 C   0  0  0  0  0  0  0  0  0  0  0  0
    4.4667   -2.8750    0.0000 C   0  0  0  0  0  0  0  0  0  0  0  0
    4.8042   -2.1292    0.0000 C   0  0  0  0  0  0  0  0  0  0  0  0
    5.6167   -2.0417    0.0000 C   0  0  0  0  0  0  0  0  0  0  0  0
    0.5417   -3.5167    0.0000 C   0  0  0  0  0  0  0  0  0  0  0  0
    2.1917   -3.7042    0.0000 C   0  0  0  0  0  0  0  0  0  0  0  0
    6.0292   -1.3250    0.0000 Cl  0  0  0  0  0  0  0  0  0  0  0  0
   -0.2708   -3.4250    0.0000 O   0  0  0  0  0  0  0  0  0  0  0  0
    1.7000   -4.3667    0.0000 C   0  0  0  0  0  0  0  0  0  0  0  0
    5.7667   -3.4625    0.0000 C   0  0  0  0  0  0  0  0  0  0  0  0
    4.9500   -3.5417    0.0000 C   0  0  0  0  0  0  0  0  0  0  0  0
    6.1042   -2.7125    0.0000 C   0  0  0  0  0  0  0  0  0  0  0  0
    0.8792   -4.2792    0.0000 C   0  0  0  0  0  0  0  0  0  0  0  0
   -0.6000   -2.6667    0.0000 C   0  0  0  0  0  0  0  0  0  0  0  0
  2  1  2  0
  3  1  1  0
  4  3  1  0
  5  2  1  0
  6  1  1  0
  7  2  1  0
  8  3  2  0
  9  5  2  0
 10  6  2  0
 11  7  1  0
 12 11  2  0
 13 12  1  0
 14 10  1  0
 15  6  1  0
 16 13  1  0
 17 14  1  0
 18 15  2  0
 19 20  2  0
 20 11  1  0
 21 19  1  0
 22 18  1  0
 23 17  1  0
  5  4  1  0
 14 22  2  0
 13 21  2  0
M  END
>  <ACTIVITY>  (120) 
257

$$$$

     RDKit          2D

 23 25  0  0  0  0  0  0  0  0999 V2000
    5.0792   -3.6000    0.0000 C   0  0  0  0  0  0  0  0  0  0  0  0
    5.9042   -3.6042    0.0000 C   0  0  0  0  0  0  0  0  0  0  0  0
    4.8250   -2.8250    0.0000 C   0  0  0  0  0  0  0  0  0  0  0  0
    5.4917   -2.3417    0.0000 N   0  0  0  0  0  0  0  0  0  0  0  0
    6.1625   -2.8250    0.0000 C   0  0  0  0  0  0  0  0  0  0  0  0
    4.5917   -4.2542    0.0000 C   0  0  0  0  0  0  0  0  0  0  0  0
    6.3875   -4.2750    0.0000 N   0  0  0  0  0  0  0  0  0  0  0  0
    4.2042   -2.5000    0.0000 O   0  0  0  0  0  0  0  0  0  0  0  0
    6.9500   -2.5750    0.0000 O   0  0  0  0  0  0  0  0  0  0  0  0
    3.7750   -4.1792    0.0000 C   0  0  0  0  0  0  0  0  0  0  0  0
    7.2042   -4.1917    0.0000 C   0  0  0  0  0  0  0  0  0  0  0  0
    3.2875   -4.8375    0.0000 C   0  0  0  0  0  0  0  0  0  0  0  0
    8.8500   -4.0292    0.0000 C   0  0  0  0  0  0  0  0  0  0  0  0
    9.6667   -3.9417    0.0000 S   0  0  0  0  0  0  0  0  0  0  0  0
    4.9292   -5.0167    0.0000 C   0  0  0  0  0  0  0  0  0  0  0  0
    2.4875   -4.6167    0.0000 Cl  0  0  0  0  0  0  0  0  0  0  0  0
    7.6917   -4.8625    0.0000 C   0  0  0  0  0  0  0  0  0  0  0  0
    7.5417   -3.4417    0.0000 C   0  0  0  0  0  0  0  0  0  0  0  0
    8.3625   -3.3542    0.0000 C   0  0  0  0  0  0  0  0  0  0  0  0
    8.5042   -4.7792    0.0000 C   0  0  0  0  0  0  0  0  0  0  0  0
    4.4417   -5.6875    0.0000 C   0  0  0  0  0  0  0  0  0  0  0  0
    3.6167   -5.5917    0.0000 C   0  0  0  0  0  0  0  0  0  0  0  0
   10.1542   -4.6125    0.0000 C   0  0  0  0  0  0  0  0  0  0  0  0
  2  1  2  0
  3  1  1  0
  4  3  1  0
  5  2  1  0
  6  1  1  0
  7  2  1  0
  8  3  2  0
  9  5  2  0
 10  6  2  0
 11  7  1  0
 12 10  1  0
 13 19  2  0
 14 13  1  0
 15  6  1  0
 16 12  1  0
 17 11  1  0
 18 11  2  0
 19 18  1  0
 20 17  2  0
 21 15  2  0
 22 21  1  0
 23 14  1  0
  5  4  1  0
 12 22  2  0
 20 13  1  0
M  END
>  <ACTIVITY>  (121) 
532

$$$$

     RDKit          2D

 25 27  0  0  0  0  0  0  0  0999 V2000
   -1.4289    2.4750    0.0000 O   0  0  0  0  0  0  0  0  0  0  0  0
   -0.7145    2.0625    0.0000 C   0  0  0  0  0  0  0  0  0  0  0  0
    0.0000    2.4750    0.0000 O   0  0  0  0  0  0  0  0  0  0  0  0
   -0.7145    1.2375    0.0000 C   0  0  0  0  0  0  0  0  0  0  0  0
    0.0000    0.8250    0.0000 C   0  0  0  0  0  0  0  0  0  0  0  0
    0.0000    0.0000    0.0000 C   0  0  0  0  0  0  0  0  0  0  0  0
    0.7145   -0.4125    0.0000 N   0  0  0  0  0  0  0  0  0  0  0  0
    0.7145   -1.2375    0.0000 C   0  0  0  0  0  0  0  0  0  0  0  0
    1.3819   -1.7224    0.0000 C   0  0  0  0  0  0  0  0  0  0  0  0
    1.1270   -2.5070    0.0000 C   0  0  0  0  0  0  0  0  0  0  0  0
    1.6119   -3.1745    0.0000 O   0  0  0  0  0  0  0  0  0  0  0  0
    0.3020   -2.5070    0.0000 N   0  0  0  0  0  0  0  0  0  0  0  0
    0.0470   -1.7224    0.0000 C   0  0  0  0  0  0  0  0  0  0  0  0
   -0.7376   -1.4675    0.0000 O   0  0  0  0  0  0  0  0  0  0  0  0
    2.1665   -1.4675    0.0000 C   0  0  0  0  0  0  0  0  0  0  0  0
    2.3381   -0.6605    0.0000 C   0  0  0  0  0  0  0  0  0  0  0  0
    3.1227   -0.4056    0.0000 C   0  0  0  0  0  0  0  0  0  0  0  0
    3.7358   -0.9576    0.0000 C   0  0  0  0  0  0  0  0  0  0  0  0
    3.5642   -1.7646    0.0000 C   0  0  0  0  0  0  0  0  0  0  0  0
    4.1773   -2.3166    0.0000 Cl  0  0  0  0  0  0  0  0  0  0  0  0
    2.7796   -2.0195    0.0000 C   0  0  0  0  0  0  0  0  0  0  0  0
   -0.7145   -0.4125    0.0000 C   0  0  0  0  0  0  0  0  0  0  0  0
   -1.4289    0.0000    0.0000 C   0  0  0  0  0  0  0  0  0  0  0  0
   -1.4289    0.8250    0.0000 C   0  0  0  0  0  0  0  0  0  0  0  0
   -2.1434    1.2375    0.0000 Cl  0  0  0  0  0  0  0  0  0  0  0  0
  1  2  1  0
  2  3  2  0
  2  4  1  0
  4  5  2  0
  5  6  1  0
  6  7  1  0
  7  8  1  0
  8  9  2  0
  9 10  1  0
 10 11  2  0
 10 12  1  0
 12 13  1  0
  8 13  1  0
 13 14  2  0
  9 15  1  0
 15 16  2  0
 16 17  1  0
 17 18  2  0
 18 19  1  0
 19 20  1  0
 19 21  2  0
 15 21  1  0
  6 22  2  0
 22 23  1  0
 23 24  2  0
  4 24  1  0
 24 25  1  0
M  END
>  <ACTIVITY>  (122) 
76

$$$$

     RDKit          2D

 24 26  0  0  0  0  0  0  0  0999 V2000
    5.0792   -3.6000    0.0000 C   0  0  0  0  0  0  0  0  0  0  0  0
    5.9042   -3.6042    0.0000 C   0  0  0  0  0  0  0  0  0  0  0  0
    4.8250   -2.8250    0.0000 C   0  0  0  0  0  0  0  0  0  0  0  0
    5.4917   -2.3417    0.0000 N   0  0  0  0  0  0  0  0  0  0  0  0
    6.1625   -2.8250    0.0000 C   0  0  0  0  0  0  0  0  0  0  0  0
    4.5917   -4.2542    0.0000 C   0  0  0  0  0  0  0  0  0  0  0  0
    6.3875   -4.2750    0.0000 N   0  0  0  0  0  0  0  0  0  0  0  0
    8.6917   -2.6042    0.0000 C   0  0  0  0  0  0  0  0  0  0  0  0
    8.3625   -3.3542    0.0000 C   0  0  0  0  0  0  0  0  0  0  0  0
    4.2042   -2.5000    0.0000 O   0  0  0  0  0  0  0  0  0  0  0  0
    6.9500   -2.5750    0.0000 O   0  0  0  0  0  0  0  0  0  0  0  0
    3.7750   -4.1792    0.0000 C   0  0  0  0  0  0  0  0  0  0  0  0
    7.2042   -4.1917    0.0000 C   0  0  0  0  0  0  0  0  0  0  0  0
    7.5417   -3.4417    0.0000 C   0  0  0  0  0  0  0  0  0  0  0  0
    8.2125   -1.9375    0.0000 O   0  0  0  0  0  0  0  0  0  0  0  0
    3.2875   -4.8375    0.0000 C   0  0  0  0  0  0  0  0  0  0  0  0
    9.5167   -2.5167    0.0000 O   0  0  0  0  0  0  0  0  0  0  0  0
    4.9292   -5.0167    0.0000 C   0  0  0  0  0  0  0  0  0  0  0  0
    2.4625   -4.8375    0.0000 Cl  0  0  0  0  0  0  0  0  0  0  0  0
    8.8500   -4.0292    0.0000 C   0  0  0  0  0  0  0  0  0  0  0  0
    4.4417   -5.6875    0.0000 C   0  0  0  0  0  0  0  0  0  0  0  0
    8.5042   -4.7792    0.0000 C   0  0  0  0  0  0  0  0  0  0  0  0
    7.6917   -4.8625    0.0000 C   0  0  0  0  0  0  0  0  0  0  0  0
    3.6167   -5.5917    0.0000 C   0  0  0  0  0  0  0  0  0  0  0  0
  2  1  2  0
  3  1  1  0
  4  3  1  0
  5  2  1  0
  6  1  1  0
  7  2  1  0
  8  9  1  0
  9 14  2  0
 10  3  2  0
 11  5  2  0
 12  6  2  0
 13  7  1  0
 14 13  1  0
 15  8  2  0
 16 12  1  0
 17  8  1  0
 18  6  1  0
 19 16  1  0
 20 22  2  0
 21 18  2  0
 22 23  1  0
 23 13  2  0
 24 21  1  0
  5  4  1  0
 16 24  2  0
  9 20  1  0
M  END
>  <ACTIVITY>  (123) 
134

$$$$

     RDKit          2D

 24 26  0  0  0  0  0  0  0  0999 V2000
    5.0792   -3.6000    0.0000 C   0  0  0  0  0  0  0  0  0  0  0  0
    5.9042   -3.6042    0.0000 C   0  0  0  0  0  0  0  0  0  0  0  0
    4.8250   -2.8250    0.0000 C   0  0  0  0  0  0  0  0  0  0  0  0
    5.4917   -2.3417    0.0000 N   0  0  0  0  0  0  0  0  0  0  0  0
    6.1625   -2.8250    0.0000 C   0  0  0  0  0  0  0  0  0  0  0  0
    4.5917   -4.2542    0.0000 C   0  0  0  0  0  0  0  0  0  0  0  0
    6.3875   -4.2750    0.0000 N   0  0  0  0  0  0  0  0  0  0  0  0
    8.8500   -4.0292    0.0000 C   0  0  0  0  0  0  0  0  0  0  0  0
    8.5042   -4.7792    0.0000 C   0  0  0  0  0  0  0  0  0  0  0  0
    8.3625   -3.3542    0.0000 C   0  0  0  0  0  0  0  0  0  0  0  0
    7.2042   -4.1917    0.0000 C   0  0  0  0  0  0  0  0  0  0  0  0
    7.6917   -4.8625    0.0000 C   0  0  0  0  0  0  0  0  0  0  0  0
    7.5417   -3.4417    0.0000 C   0  0  0  0  0  0  0  0  0  0  0  0
    4.2042   -2.5000    0.0000 O   0  0  0  0  0  0  0  0  0  0  0  0
    6.9500   -2.5750    0.0000 O   0  0  0  0  0  0  0  0  0  0  0  0
    3.7750   -4.1792    0.0000 C   0  0  0  0  0  0  0  0  0  0  0  0
    8.7667   -2.6417    0.0000 Cl  0  0  0  0  0  0  0  0  0  0  0  0
    9.0917   -5.3625    0.0000 Cl  0  0  0  0  0  0  0  0  0  0  0  0
    9.6667   -3.9417    0.0000 O   0  0  0  0  0  0  0  0  0  0  0  0
    3.2875   -4.8375    0.0000 C   0  0  0  0  0  0  0  0  0  0  0  0
    4.9292   -5.0167    0.0000 C   0  0  0  0  0  0  0  0  0  0  0  0
    2.4625   -4.8375    0.0000 Cl  0  0  0  0  0  0  0  0  0  0  0  0
    4.4417   -5.6875    0.0000 C   0  0  0  0  0  0  0  0  0  0  0  0
    3.6167   -5.5917    0.0000 C   0  0  0  0  0  0  0  0  0  0  0  0
  2  1  2  0
  3  1  1  0
  4  3  1  0
  5  2  1  0
  6  1  1  0
  7  2  1  0
  8 10  2  0
  9 12  2  0
 10 13  1  0
 11  7  1  0
 12 11  1  0
 13 11  2  0
 14  3  2  0
 15  5  2  0
 16  6  2  0
 17 10  1  0
 18  9  1  0
 19  8  1  0
 20 16  1  0
 21  6  1  0
 22 20  1  0
 23 21  2  0
 24 23  1  0
  5  4  1  0
 20 24  2  0
  9  8  1  0
M  END
>  <ACTIVITY>  (124) 
58

$$$$

     RDKit          2D

 23 25  0  0  0  0  0  0  0  0999 V2000
   -2.1434    1.2375    0.0000 O   0  0  0  0  0  0  0  0  0  0  0  0
   -1.4289    0.8250    0.0000 C   0  0  0  0  0  0  0  0  0  0  0  0
   -0.7145    1.2375    0.0000 C   0  0  0  0  0  0  0  0  0  0  0  0
    0.0000    0.8250    0.0000 C   0  0  0  0  0  0  0  0  0  0  0  0
    0.0000    0.0000    0.0000 C   0  0  0  0  0  0  0  0  0  0  0  0
    0.7145   -0.4125    0.0000 N   0  0  0  0  0  0  0  0  0  0  0  0
    0.7145   -1.2375    0.0000 C   0  0  0  0  0  0  0  0  0  0  0  0
    1.3819   -1.7224    0.0000 C   0  0  0  0  0  0  0  0  0  0  0  0
    1.1270   -2.5070    0.0000 C   0  0  0  0  0  0  0  0  0  0  0  0
    1.6119   -3.1745    0.0000 O   0  0  0  0  0  0  0  0  0  0  0  0
    0.3020   -2.5070    0.0000 N   0  0  0  0  0  0  0  0  0  0  0  0
    0.0470   -1.7224    0.0000 C   0  0  0  0  0  0  0  0  0  0  0  0
   -0.7376   -1.4675    0.0000 O   0  0  0  0  0  0  0  0  0  0  0  0
    2.1665   -1.4675    0.0000 C   0  0  0  0  0  0  0  0  0  0  0  0
    2.3381   -0.6605    0.0000 C   0  0  0  0  0  0  0  0  0  0  0  0
    3.1227   -0.4056    0.0000 C   0  0  0  0  0  0  0  0  0  0  0  0
    3.7358   -0.9576    0.0000 C   0  0  0  0  0  0  0  0  0  0  0  0
    3.5642   -1.7646    0.0000 C   0  0  0  0  0  0  0  0  0  0  0  0
    4.1773   -2.3166    0.0000 Cl  0  0  0  0  0  0  0  0  0  0  0  0
    2.7796   -2.0195    0.0000 C   0  0  0  0  0  0  0  0  0  0  0  0
   -0.7145   -0.4125    0.0000 C   0  0  0  0  0  0  0  0  0  0  0  0
   -1.4289    0.0000    0.0000 C   0  0  0  0  0  0  0  0  0  0  0  0
   -2.1434   -0.4125    0.0000 Cl  0  0  0  0  0  0  0  0  0  0  0  0
  1  2  1  0
  2  3  2  0
  3  4  1  0
  4  5  2  0
  5  6  1  0
  6  7  1  0
  7  8  2  0
  8  9  1  0
  9 10  2  0
  9 11  1  0
 11 12  1  0
  7 12  1  0
 12 13  2  0
  8 14  1  0
 14 15  2  0
 15 16  1  0
 16 17  2  0
 17 18  1  0
 18 19  1  0
 18 20  2  0
 14 20  1  0
  5 21  1  0
 21 22  2  0
  2 22  1  0
 22 23  1  0
M  END
>  <ACTIVITY>  (125) 
94

$$$$

     RDKit          2D

 22 24  0  0  0  0  0  0  0  0999 V2000
    2.3417   -2.2792    0.0000 C   0  0  0  0  0  0  0  0  0  0  0  0
    3.1667   -2.2917    0.0000 C   0  0  0  0  0  0  0  0  0  0  0  0
    2.0792   -1.5042    0.0000 C   0  0  0  0  0  0  0  0  0  0  0  0
    2.7542   -1.0250    0.0000 N   0  0  0  0  0  0  0  0  0  0  0  0
    3.4167   -1.5042    0.0000 C   0  0  0  0  0  0  0  0  0  0  0  0
    1.8542   -2.9417    0.0000 C   0  0  0  0  0  0  0  0  0  0  0  0
    3.6417   -2.9542    0.0000 N   0  0  0  0  0  0  0  0  0  0  0  0
    1.4667   -1.1792    0.0000 O   0  0  0  0  0  0  0  0  0  0  0  0
    4.2042   -1.2542    0.0000 O   0  0  0  0  0  0  0  0  0  0  0  0
    1.0292   -2.8625    0.0000 C   0  0  0  0  0  0  0  0  0  0  0  0
    4.4667   -2.8750    0.0000 C   0  0  0  0  0  0  0  0  0  0  0  0
    4.8042   -2.1292    0.0000 C   0  0  0  0  0  0  0  0  0  0  0  0
    0.5417   -3.5167    0.0000 C   0  0  0  0  0  0  0  0  0  0  0  0
    5.6167   -2.0417    0.0000 C   0  0  0  0  0  0  0  0  0  0  0  0
    2.1917   -3.7042    0.0000 C   0  0  0  0  0  0  0  0  0  0  0  0
   -0.2833   -3.5167    0.0000 Cl  0  0  0  0  0  0  0  0  0  0  0  0
    5.9542   -1.2875    0.0000 O   0  0  0  0  0  0  0  0  0  0  0  0
    1.7000   -4.3667    0.0000 C   0  0  0  0  0  0  0  0  0  0  0  0
    5.7667   -3.4625    0.0000 C   0  0  0  0  0  0  0  0  0  0  0  0
    4.9500   -3.5417    0.0000 C   0  0  0  0  0  0  0  0  0  0  0  0
    0.8792   -4.2792    0.0000 C   0  0  0  0  0  0  0  0  0  0  0  0
    6.1042   -2.7125    0.0000 C   0  0  0  0  0  0  0  0  0  0  0  0
  2  1  2  0
  3  1  1  0
  4  3  1  0
  5  2  1  0
  6  1  1  0
  7  2  1  0
  8  3  2  0
  9  5  2  0
 10  6  2  0
 11  7  1  0
 12 11  2  0
 13 10  1  0
 14 12  1  0
 15  6  1  0
 16 13  1  0
 17 14  1  0
 18 15  2  0
 19 20  2  0
 20 11  1  0
 21 18  1  0
 22 19  1  0
  5  4  1  0
 13 21  2  0
 14 22  2  0
M  END
>  <ACTIVITY>  (126) 
1478

$$$$

     RDKit          2D

 27 29  0  0  0  0  0  0  0  0999 V2000
    2.5292   -2.5750    0.0000 C   0  0  0  0  0  0  0  0  0  0  0  0
    3.3500   -2.5167    0.0000 C   0  0  0  0  0  0  0  0  0  0  0  0
    2.2250   -1.8042    0.0000 C   0  0  0  0  0  0  0  0  0  0  0  0
    2.8542   -1.2792    0.0000 N   0  0  0  0  0  0  0  0  0  0  0  0
    3.5542   -1.7167    0.0000 C   0  0  0  0  0  0  0  0  0  0  0  0
    2.0875   -3.2667    0.0000 C   0  0  0  0  0  0  0  0  0  0  0  0
    0.8792   -2.5000    0.0000 N   0  0  0  0  0  0  0  0  0  0  0  0
    5.7792   -2.1042    0.0000 C   0  0  0  0  0  0  0  0  0  0  0  0
    1.2625   -3.2375    0.0000 C   0  0  0  0  0  0  0  0  0  0  0  0
    3.8750   -3.1542    0.0000 N   0  0  0  0  0  0  0  0  0  0  0  0
    5.9917   -1.3042    0.0000 C   0  0  0  0  0  0  0  0  0  0  0  0
    6.3125   -2.7417    0.0000 C   0  0  0  0  0  0  0  0  0  0  0  0
    4.9667   -2.2417    0.0000 C   0  0  0  0  0  0  0  0  0  0  0  0
    0.4292   -1.6500    0.0000 O   0  0  0  0  0  0  0  0  0  0  0  0
    1.5792   -1.5542    0.0000 O   0  0  0  0  0  0  0  0  0  0  0  0
   -0.0083   -2.7750    0.0000 O   0  0  0  0  0  0  0  0  0  0  0  0
    4.3250   -1.4167    0.0000 O   0  0  0  0  0  0  0  0  0  0  0  0
    4.6917   -3.0167    0.0000 C   0  0  0  0  0  0  0  0  0  0  0  0
    6.7792   -1.0792    0.0000 O   0  0  0  0  0  0  0  0  0  0  0  0
    6.0250   -3.5167    0.0000 C   0  0  0  0  0  0  0  0  0  0  0  0
    5.4000   -0.7250    0.0000 O   0  0  0  0  0  0  0  0  0  0  0  0
    5.2125   -3.6542    0.0000 C   0  0  0  0  0  0  0  0  0  0  0  0
    7.1042   -2.5250    0.0000 Cl  0  0  0  0  0  0  0  0  0  0  0  0
    2.4667   -4.0042    0.0000 C   0  0  0  0  0  0  0  0  0  0  0  0
    0.8167   -3.9292    0.0000 C   0  0  0  0  0  0  0  0  0  0  0  0
    2.0250   -4.7042    0.0000 C   0  0  0  0  0  0  0  0  0  0  0  0
    1.2000   -4.6667    0.0000 C   0  0  0  0  0  0  0  0  0  0  0  0
  2  1  2  0
  3  1  1  0
  4  3  1  0
  5  2  1  0
  6  1  1  0
  7  9  1  0
  8 13  2  0
  9  6  2  0
 10  2  1  0
 11  8  1  0
 12 20  2  0
 13 18  1  0
 14  7  1  0
 15  3  2  0
 16  7  2  0
 17  5  2  0
 18 10  1  0
 19 11  2  0
 20 22  1  0
 21 11  1  0
 22 18  2  0
 23 12  1  0
 24  6  1  0
 25  9  1  0
 26 24  2  0
 27 26  1  0
  5  4  1  0
 25 27  2  0
  8 12  1  0
M  CHG  2   7   1  14  -1
M  END
>  <ACTIVITY>  (127) 
28

$$$$

     RDKit          2D

 26 28  0  0  0  0  0  0  0  0999 V2000
    5.0792   -3.6000    0.0000 C   0  0  0  0  0  0  0  0  0  0  0  0
    5.9042   -3.6042    0.0000 C   0  0  0  0  0  0  0  0  0  0  0  0
    4.8250   -2.8250    0.0000 C   0  0  0  0  0  0  0  0  0  0  0  0
    5.4917   -2.3417    0.0000 N   0  0  0  0  0  0  0  0  0  0  0  0
    6.1625   -2.8250    0.0000 C   0  0  0  0  0  0  0  0  0  0  0  0
    4.5917   -4.2542    0.0000 C   0  0  0  0  0  0  0  0  0  0  0  0
    3.4417   -3.4167    0.0000 N   0  0  0  0  0  0  0  0  0  0  0  0
    3.7750   -4.1792    0.0000 C   0  0  0  0  0  0  0  0  0  0  0  0
    6.3875   -4.2750    0.0000 N   0  0  0  0  0  0  0  0  0  0  0  0
    8.8500   -4.0292    0.0000 C   0  0  0  0  0  0  0  0  0  0  0  0
    8.3625   -3.3542    0.0000 C   0  0  0  0  0  0  0  0  0  0  0  0
    8.5042   -4.7792    0.0000 C   0  0  0  0  0  0  0  0  0  0  0  0
    7.2042   -4.1917    0.0000 C   0  0  0  0  0  0  0  0  0  0  0  0
    7.5417   -3.4417    0.0000 C   0  0  0  0  0  0  0  0  0  0  0  0
    7.6917   -4.8625    0.0000 C   0  0  0  0  0  0  0  0  0  0  0  0
    3.3000   -2.6792    0.0000 O   0  0  0  0  0  0  0  0  0  0  0  0
    4.2042   -2.5000    0.0000 O   0  0  0  0  0  0  0  0  0  0  0  0
    2.5500   -3.5542    0.0000 O   0  0  0  0  0  0  0  0  0  0  0  0
    6.9500   -2.5750    0.0000 O   0  0  0  0  0  0  0  0  0  0  0  0
    9.0917   -5.3625    0.0000 Cl  0  0  0  0  0  0  0  0  0  0  0  0
    8.7667   -2.6417    0.0000 Cl  0  0  0  0  0  0  0  0  0  0  0  0
    9.6667   -3.9417    0.0000 O   0  0  0  0  0  0  0  0  0  0  0  0
    4.9292   -5.0167    0.0000 C   0  0  0  0  0  0  0  0  0  0  0  0
    3.2875   -4.8375    0.0000 C   0  0  0  0  0  0  0  0  0  0  0  0
    4.4417   -5.6875    0.0000 C   0  0  0  0  0  0  0  0  0  0  0  0
    3.6167   -5.5917    0.0000 C   0  0  0  0  0  0  0  0  0  0  0  0
  2  1  2  0
  3  1  1  0
  4  3  1  0
  5  2  1  0
  6  1  1  0
  7  8  1  0
  8  6  2  0
  9  2  1  0
 10 12  2  0
 11 14  2  0
 12 15  1  0
 13  9  1  0
 14 13  1  0
 15 13  2  0
 16  7  1  0
 17  3  2  0
 18  7  2  0
 19  5  2  0
 20 12  1  0
 21 11  1  0
 22 10  1  0
 23  6  1  0
 24  8  1  0
 25 23  2  0
 26 25  1  0
  5  4  1  0
 24 26  2  0
 11 10  1  0
M  CHG  2   7   1  16  -1
M  END
>  <ACTIVITY>  (128) 
52

$$$$

     RDKit          2D

 25 27  0  0  0  0  0  0  0  0999 V2000
    1.7610    0.0424    0.0000 C   0  0  0  0  0  0  0  0  0  0  0  0
    1.7557   -0.7832    0.0000 C   0  0  0  0  0  0  0  0  0  0  0  0
    2.4669   -1.1988    0.0000 C   0  0  0  0  0  0  0  0  0  0  0  0
    3.1839   -0.7899    0.0000 C   0  0  0  0  0  0  0  0  0  0  0  0
    3.1853    0.0388    0.0000 C   0  0  0  0  0  0  0  0  0  0  0  0
    2.4734    0.4507    0.0000 C   0  0  0  0  0  0  0  0  0  0  0  0
    0.9289    2.0228    0.0000 N   0  0  0  0  0  0  0  0  0  0  0  0
    0.2682    1.5363    0.0000 C   0  0  0  0  0  0  0  0  0  0  0  0
    0.5253    0.7533    0.0000 C   0  0  0  0  0  0  0  0  0  0  0  0
    1.3501    0.7571    0.0000 C   0  0  0  0  0  0  0  0  0  0  0  0
    1.6001    1.5433    0.0000 C   0  0  0  0  0  0  0  0  0  0  0  0
   -2.3578    0.0443    0.0000 C   0  0  0  0  0  0  0  0  0  0  0  0
   -1.9501   -0.6693    0.0000 C   0  0  0  0  0  0  0  0  0  0  0  0
   -1.1302   -0.6721    0.0000 C   0  0  0  0  0  0  0  0  0  0  0  0
   -0.7169    0.0380    0.0000 C   0  0  0  0  0  0  0  0  0  0  0  0
   -1.1295    0.7524    0.0000 C   0  0  0  0  0  0  0  0  0  0  0  0
   -1.9482    0.7516    0.0000 C   0  0  0  0  0  0  0  0  0  0  0  0
    0.1105    0.0367    0.0000 N   0  0  0  0  0  0  0  0  0  0  0  0
   -3.1853    0.0467    0.0000 O   0  0  0  0  0  0  0  0  0  0  0  0
   -2.3668   -1.3842    0.0000 Cl  0  0  0  0  0  0  0  0  0  0  0  0
   -0.5200    1.7883    0.0000 O   0  0  0  0  0  0  0  0  0  0  0  0
    2.3851    1.8046    0.0000 O   0  0  0  0  0  0  0  0  0  0  0  0
    1.0367   -1.1927    0.0000 N   0  0  0  0  0  0  0  0  0  0  0  0
    0.3210   -0.7774    0.0000 O   0  0  0  0  0  0  0  0  0  0  0  0
    1.0303   -2.0228    0.0000 O   0  0  0  0  0  0  0  0  0  0  0  0
 12 13  2  0
  1  2  2  0
 13 14  1  0
  9 10  2  0
 14 15  2  0
  3  4  2  0
 15 16  1  0
 16 17  2  0
 17 12  1  0
  4  5  1  0
 15 18  1  0
 18  9  1  0
  2  3  1  0
 12 19  1  0
  8  9  1  0
 13 20  1  0
 10 11  1  0
  8 21  2  0
 11  7  1  0
 11 22  2  0
 10  1  1  0
  2 23  1  0
  7  8  1  0
  5  6  2  0
  6  1  1  0
 23 24  1  0
 23 25  2  0
M  CHG  2  23   1  24  -1
M  END
>  <ACTIVITY>  (129) 
104

$$$$

     RDKit          2D

 24 26  0  0  0  0  0  0  0  0999 V2000
    2.3417   -2.2792    0.0000 C   0  0  0  0  0  0  0  0  0  0  0  0
    3.1667   -2.2917    0.0000 C   0  0  0  0  0  0  0  0  0  0  0  0
    2.0792   -1.5042    0.0000 C   0  0  0  0  0  0  0  0  0  0  0  0
    2.7542   -1.0250    0.0000 N   0  0  0  0  0  0  0  0  0  0  0  0
    3.4167   -1.5042    0.0000 C   0  0  0  0  0  0  0  0  0  0  0  0
    1.8542   -2.9417    0.0000 C   0  0  0  0  0  0  0  0  0  0  0  0
    0.7042   -2.1000    0.0000 N   0  0  0  0  0  0  0  0  0  0  0  0
    1.0292   -2.8625    0.0000 C   0  0  0  0  0  0  0  0  0  0  0  0
    3.6417   -2.9542    0.0000 N   0  0  0  0  0  0  0  0  0  0  0  0
    0.7042   -1.1792    0.0000 O   0  0  0  0  0  0  0  0  0  0  0  0
    1.4667   -1.1792    0.0000 O   0  0  0  0  0  0  0  0  0  0  0  0
   -0.1208   -2.0125    0.0000 O   0  0  0  0  0  0  0  0  0  0  0  0
    4.2042   -1.2542    0.0000 O   0  0  0  0  0  0  0  0  0  0  0  0
    4.4667   -2.8750    0.0000 C   0  0  0  0  0  0  0  0  0  0  0  0
    4.8042   -2.1292    0.0000 C   0  0  0  0  0  0  0  0  0  0  0  0
    5.6167   -2.0417    0.0000 C   0  0  0  0  0  0  0  0  0  0  0  0
    2.1917   -3.7042    0.0000 C   0  0  0  0  0  0  0  0  0  0  0  0
    5.9542   -1.2875    0.0000 O   0  0  0  0  0  0  0  0  0  0  0  0
    0.5417   -3.5167    0.0000 C   0  0  0  0  0  0  0  0  0  0  0  0
    5.7667   -3.4625    0.0000 C   0  0  0  0  0  0  0  0  0  0  0  0
    4.9500   -3.5417    0.0000 C   0  0  0  0  0  0  0  0  0  0  0  0
    6.1042   -2.7125    0.0000 C   0  0  0  0  0  0  0  0  0  0  0  0
    1.7000   -4.3667    0.0000 C   0  0  0  0  0  0  0  0  0  0  0  0
    0.8792   -4.2792    0.0000 C   0  0  0  0  0  0  0  0  0  0  0  0
  2  1  2  0
  3  1  1  0
  4  3  1  0
  5  2  1  0
  6  1  1  0
  7  8  1  0
  8  6  2  0
  9  2  1  0
 10  7  1  0
 11  3  2  0
 12  7  2  0
 13  5  2  0
 14  9  1  0
 15 14  2  0
 16 15  1  0
 17  6  1  0
 18 16  1  0
 19  8  1  0
 20 21  2  0
 21 14  1  0
 22 20  1  0
 23 17  2  0
 24 23  1  0
  5  4  1  0
 19 24  2  0
 16 22  2  0
M  CHG  2   7   1  10  -1
M  END
>  <ACTIVITY>  (130) 
251

$$$$

     RDKit          2D

 24 26  0  0  0  0  0  0  0  0999 V2000
    2.3417   -2.2792    0.0000 C   0  0  0  0  0  0  0  0  0  0  0  0
    3.1667   -2.2917    0.0000 C   0  0  0  0  0  0  0  0  0  0  0  0
    2.0792   -1.5042    0.0000 C   0  0  0  0  0  0  0  0  0  0  0  0
    2.7542   -1.0250    0.0000 N   0  0  0  0  0  0  0  0  0  0  0  0
    3.4167   -1.5042    0.0000 C   0  0  0  0  0  0  0  0  0  0  0  0
    1.8542   -2.9417    0.0000 C   0  0  0  0  0  0  0  0  0  0  0  0
    0.7042   -2.1000    0.0000 N   0  0  0  0  0  0  0  0  0  0  0  0
    1.0292   -2.8625    0.0000 C   0  0  0  0  0  0  0  0  0  0  0  0
    3.6417   -2.9542    0.0000 N   0  0  0  0  0  0  0  0  0  0  0  0
    0.7417   -1.2750    0.0000 O   0  0  0  0  0  0  0  0  0  0  0  0
    1.4667   -1.1792    0.0000 O   0  0  0  0  0  0  0  0  0  0  0  0
   -0.1208   -2.0125    0.0000 O   0  0  0  0  0  0  0  0  0  0  0  0
    4.2042   -1.2542    0.0000 O   0  0  0  0  0  0  0  0  0  0  0  0
    4.4667   -2.8750    0.0000 C   0  0  0  0  0  0  0  0  0  0  0  0
    4.8042   -2.1292    0.0000 C   0  0  0  0  0  0  0  0  0  0  0  0
    5.6167   -2.0417    0.0000 C   0  0  0  0  0  0  0  0  0  0  0  0
    2.1917   -3.7042    0.0000 C   0  0  0  0  0  0  0  0  0  0  0  0
    6.0292   -1.3250    0.0000 Cl  0  0  0  0  0  0  0  0  0  0  0  0
    0.5417   -3.5167    0.0000 C   0  0  0  0  0  0  0  0  0  0  0  0
    5.7667   -3.4625    0.0000 C   0  0  0  0  0  0  0  0  0  0  0  0
    4.9500   -3.5417    0.0000 C   0  0  0  0  0  0  0  0  0  0  0  0
    6.1042   -2.7125    0.0000 C   0  0  0  0  0  0  0  0  0  0  0  0
    1.7000   -4.3667    0.0000 C   0  0  0  0  0  0  0  0  0  0  0  0
    0.8792   -4.2792    0.0000 C   0  0  0  0  0  0  0  0  0  0  0  0
  2  1  2  0
  3  1  1  0
  4  3  1  0
  5  2  1  0
  6  1  1  0
  7  8  1  0
  8  6  2  0
  9  2  1  0
 10  7  1  0
 11  3  2  0
 12  7  2  0
 13  5  2  0
 14  9  1  0
 15 14  2  0
 16 15  1  0
 17  6  1  0
 18 16  1  0
 19  8  1  0
 20 21  2  0
 21 14  1  0
 22 20  1  0
 23 17  2  0
 24 23  1  0
  5  4  1  0
 19 24  2  0
 16 22  2  0
M  CHG  2   7   1  10  -1
M  END
>  <ACTIVITY>  (131) 
104

$$$$

     RDKit          2D

 24 26  0  0  0  0  0  0  0  0999 V2000
    5.0792   -3.6000    0.0000 C   0  0  0  0  0  0  0  0  0  0  0  0
    5.9042   -3.6042    0.0000 C   0  0  0  0  0  0  0  0  0  0  0  0
    4.8250   -2.8250    0.0000 C   0  0  0  0  0  0  0  0  0  0  0  0
    5.4917   -2.3417    0.0000 N   0  0  0  0  0  0  0  0  0  0  0  0
    6.1625   -2.8250    0.0000 C   0  0  0  0  0  0  0  0  0  0  0  0
    4.5917   -4.2542    0.0000 C   0  0  0  0  0  0  0  0  0  0  0  0
    6.3875   -4.2750    0.0000 N   0  0  0  0  0  0  0  0  0  0  0  0
    4.2042   -2.5000    0.0000 O   0  0  0  0  0  0  0  0  0  0  0  0
    6.9500   -2.5750    0.0000 O   0  0  0  0  0  0  0  0  0  0  0  0
    3.7750   -4.1792    0.0000 C   0  0  0  0  0  0  0  0  0  0  0  0
    7.2042   -4.1917    0.0000 C   0  0  0  0  0  0  0  0  0  0  0  0
    8.8500   -4.0292    0.0000 C   0  0  0  0  0  0  0  0  0  0  0  0
    9.6667   -3.9417    0.0000 S   0  0  0  0  0  0  0  0  0  0  0  0
    7.5417   -3.4417    0.0000 C   0  0  0  0  0  0  0  0  0  0  0  0
    7.6917   -4.8625    0.0000 C   0  0  0  0  0  0  0  0  0  0  0  0
    8.5042   -4.7792    0.0000 C   0  0  0  0  0  0  0  0  0  0  0  0
    8.3625   -3.3542    0.0000 C   0  0  0  0  0  0  0  0  0  0  0  0
    3.4417   -3.4167    0.0000 O   0  0  0  0  0  0  0  0  0  0  0  0
    4.9292   -5.0167    0.0000 C   0  0  0  0  0  0  0  0  0  0  0  0
    3.2875   -4.8375    0.0000 C   0  0  0  0  0  0  0  0  0  0  0  0
   10.1542   -4.6125    0.0000 C   0  0  0  0  0  0  0  0  0  0  0  0
    2.6250   -3.3292    0.0000 C   0  0  0  0  0  0  0  0  0  0  0  0
    4.4417   -5.6875    0.0000 C   0  0  0  0  0  0  0  0  0  0  0  0
    3.6167   -5.5917    0.0000 C   0  0  0  0  0  0  0  0  0  0  0  0
  2  1  2  0
  3  1  1  0
  4  3  1  0
  5  2  1  0
  6  1  1  0
  7  2  1  0
  8  3  2  0
  9  5  2  0
 10  6  2  0
 11  7  1  0
 12 16  2  0
 13 12  1  0
 14 11  1  0
 15 11  2  0
 16 15  1  0
 17 14  2  0
 18 10  1  0
 19  6  1  0
 20 10  1  0
 21 13  1  0
 22 18  1  0
 23 19  2  0
 24 23  1  0
  5  4  1  0
 20 24  2  0
 17 12  1  0
M  END
>  <ACTIVITY>  (132) 
110

$$$$

     RDKit          2D

 25 27  0  0  0  0  0  0  0  0999 V2000
    5.0792   -3.6000    0.0000 C   0  0  0  0  0  0  0  0  0  0  0  0
    5.9042   -3.6042    0.0000 C   0  0  0  0  0  0  0  0  0  0  0  0
    4.8250   -2.8250    0.0000 C   0  0  0  0  0  0  0  0  0  0  0  0
    5.4917   -2.3417    0.0000 N   0  0  0  0  0  0  0  0  0  0  0  0
    6.1625   -2.8250    0.0000 C   0  0  0  0  0  0  0  0  0  0  0  0
    4.5917   -4.2542    0.0000 C   0  0  0  0  0  0  0  0  0  0  0  0
    6.3875   -4.2750    0.0000 N   0  0  0  0  0  0  0  0  0  0  0  0
    8.8500   -4.0292    0.0000 C   0  0  0  0  0  0  0  0  0  0  0  0
    8.5042   -4.7792    0.0000 C   0  0  0  0  0  0  0  0  0  0  0  0
    8.3625   -3.3542    0.0000 C   0  0  0  0  0  0  0  0  0  0  0  0
    7.2042   -4.1917    0.0000 C   0  0  0  0  0  0  0  0  0  0  0  0
    7.6917   -4.8625    0.0000 C   0  0  0  0  0  0  0  0  0  0  0  0
    7.5417   -3.4417    0.0000 C   0  0  0  0  0  0  0  0  0  0  0  0
    4.2042   -2.5000    0.0000 O   0  0  0  0  0  0  0  0  0  0  0  0
    6.9500   -2.5750    0.0000 O   0  0  0  0  0  0  0  0  0  0  0  0
    3.7750   -4.1792    0.0000 C   0  0  0  0  0  0  0  0  0  0  0  0
    8.7667   -2.6417    0.0000 Cl  0  0  0  0  0  0  0  0  0  0  0  0
    9.0917   -5.3625    0.0000 Cl  0  0  0  0  0  0  0  0  0  0  0  0
    9.6667   -3.9417    0.0000 O   0  0  0  0  0  0  0  0  0  0  0  0
    3.4417   -3.4167    0.0000 O   0  0  0  0  0  0  0  0  0  0  0  0
    4.9292   -5.0167    0.0000 C   0  0  0  0  0  0  0  0  0  0  0  0
    3.2875   -4.8375    0.0000 C   0  0  0  0  0  0  0  0  0  0  0  0
    2.6250   -3.3292    0.0000 C   0  0  0  0  0  0  0  0  0  0  0  0
    4.4417   -5.6875    0.0000 C   0  0  0  0  0  0  0  0  0  0  0  0
    3.6167   -5.5917    0.0000 C   0  0  0  0  0  0  0  0  0  0  0  0
  2  1  2  0
  3  1  1  0
  4  3  1  0
  5  2  1  0
  6  1  1  0
  7  2  1  0
  8 10  2  0
  9 12  2  0
 10 13  1  0
 11  7  1  0
 12 11  1  0
 13 11  2  0
 14  3  2  0
 15  5  2  0
 16  6  2  0
 17 10  1  0
 18  9  1  0
 19  8  1  0
 20 16  1  0
 21  6  1  0
 22 16  1  0
 23 20  1  0
 24 21  2  0
 25 24  1  0
  5  4  1  0
 22 25  2  0
  9  8  1  0
M  END
>  <ACTIVITY>  (133) 
82

$$$$

     RDKit          2D

 24 26  0  0  0  0  0  0  0  0999 V2000
    5.0792   -3.6000    0.0000 C   0  0  0  0  0  0  0  0  0  0  0  0
    5.9042   -3.6042    0.0000 C   0  0  0  0  0  0  0  0  0  0  0  0
    4.8250   -2.8250    0.0000 C   0  0  0  0  0  0  0  0  0  0  0  0
    5.4917   -2.3417    0.0000 N   0  0  0  0  0  0  0  0  0  0  0  0
    6.1625   -2.8250    0.0000 C   0  0  0  0  0  0  0  0  0  0  0  0
    4.5917   -4.2542    0.0000 C   0  0  0  0  0  0  0  0  0  0  0  0
    6.3875   -4.2750    0.0000 N   0  0  0  0  0  0  0  0  0  0  0  0
    8.3625   -3.3542    0.0000 C   0  0  0  0  0  0  0  0  0  0  0  0
    7.5417   -3.4417    0.0000 C   0  0  0  0  0  0  0  0  0  0  0  0
    4.2042   -2.5000    0.0000 O   0  0  0  0  0  0  0  0  0  0  0  0
    7.2042   -4.1917    0.0000 C   0  0  0  0  0  0  0  0  0  0  0  0
    6.9500   -2.5750    0.0000 O   0  0  0  0  0  0  0  0  0  0  0  0
    8.8500   -4.0292    0.0000 C   0  0  0  0  0  0  0  0  0  0  0  0
    3.7750   -4.1792    0.0000 C   0  0  0  0  0  0  0  0  0  0  0  0
    8.5042   -4.7792    0.0000 C   0  0  0  0  0  0  0  0  0  0  0  0
    8.7667   -2.6417    0.0000 Cl  0  0  0  0  0  0  0  0  0  0  0  0
    7.6917   -4.8625    0.0000 C   0  0  0  0  0  0  0  0  0  0  0  0
    9.6667   -3.9417    0.0000 O   0  0  0  0  0  0  0  0  0  0  0  0
    3.4417   -3.4167    0.0000 O   0  0  0  0  0  0  0  0  0  0  0  0
    4.9292   -5.0167    0.0000 C   0  0  0  0  0  0  0  0  0  0  0  0
    3.2875   -4.8375    0.0000 C   0  0  0  0  0  0  0  0  0  0  0  0
    2.6250   -3.3292    0.0000 C   0  0  0  0  0  0  0  0  0  0  0  0
    4.4417   -5.6875    0.0000 C   0  0  0  0  0  0  0  0  0  0  0  0
    3.6167   -5.5917    0.0000 C   0  0  0  0  0  0  0  0  0  0  0  0
  2  1  2  0
  3  1  1  0
  4  3  1  0
  5  2  1  0
  6  1  1  0
  7  2  1  0
  8  9  2  0
  9 11  1  0
 10  3  2  0
 11  7  1  0
 12  5  2  0
 13 15  2  0
 14  6  2  0
 15 17  1  0
 16  8  1  0
 17 11  2  0
 18 13  1  0
 19 14  1  0
 20  6  1  0
 21 14  1  0
 22 19  1  0
 23 20  2  0
 24 23  1  0
  5  4  1  0
 21 24  2  0
  8 13  1  0
M  END
>  <ACTIVITY>  (134) 
139

$$$$

     RDKit          2D

 23 25  0  0  0  0  0  0  0  0999 V2000
    2.3417   -2.2792    0.0000 C   0  0  0  0  0  0  0  0  0  0  0  0
    3.1667   -2.2917    0.0000 C   0  0  0  0  0  0  0  0  0  0  0  0
    2.0792   -1.5042    0.0000 C   0  0  0  0  0  0  0  0  0  0  0  0
    2.7542   -1.0250    0.0000 N   0  0  0  0  0  0  0  0  0  0  0  0
    3.4167   -1.5042    0.0000 C   0  0  0  0  0  0  0  0  0  0  0  0
    1.8542   -2.9417    0.0000 C   0  0  0  0  0  0  0  0  0  0  0  0
    3.6417   -2.9542    0.0000 N   0  0  0  0  0  0  0  0  0  0  0  0
    1.4667   -1.1792    0.0000 O   0  0  0  0  0  0  0  0  0  0  0  0
    4.2042   -1.2542    0.0000 O   0  0  0  0  0  0  0  0  0  0  0  0
    4.4667   -2.8750    0.0000 C   0  0  0  0  0  0  0  0  0  0  0  0
    1.0292   -2.8625    0.0000 C   0  0  0  0  0  0  0  0  0  0  0  0
    4.8042   -2.1292    0.0000 C   0  0  0  0  0  0  0  0  0  0  0  0
    5.6167   -2.0417    0.0000 C   0  0  0  0  0  0  0  0  0  0  0  0
    0.7042   -2.1042    0.0000 O   0  0  0  0  0  0  0  0  0  0  0  0
    5.9542   -1.2875    0.0000 O   0  0  0  0  0  0  0  0  0  0  0  0
    2.1917   -3.7042    0.0000 C   0  0  0  0  0  0  0  0  0  0  0  0
    5.7667   -3.4625    0.0000 C   0  0  0  0  0  0  0  0  0  0  0  0
    4.9500   -3.5417    0.0000 C   0  0  0  0  0  0  0  0  0  0  0  0
    0.5417   -3.5167    0.0000 C   0  0  0  0  0  0  0  0  0  0  0  0
    6.1042   -2.7125    0.0000 C   0  0  0  0  0  0  0  0  0  0  0  0
   -0.1208   -2.0167    0.0000 C   0  0  0  0  0  0  0  0  0  0  0  0
    1.7000   -4.3667    0.0000 C   0  0  0  0  0  0  0  0  0  0  0  0
    0.8792   -4.2792    0.0000 C   0  0  0  0  0  0  0  0  0  0  0  0
  2  1  2  0
  3  1  1  0
  4  3  1  0
  5  2  1  0
  6  1  1  0
  7  2  1  0
  8  3  2  0
  9  5  2  0
 10  7  1  0
 11  6  2  0
 12 10  2  0
 13 12  1  0
 14 11  1  0
 15 13  1  0
 16  6  1  0
 17 18  2  0
 18 10  1  0
 19 11  1  0
 20 17  1  0
 21 14  1  0
 22 16  2  0
 23 22  1  0
  5  4  1  0
 19 23  2  0
 13 20  2  0
M  END
>  <ACTIVITY>  (135) 
259

$$$$

     RDKit          2D

 23 25  0  0  0  0  0  0  0  0999 V2000
    2.3417   -2.2792    0.0000 C   0  0  0  0  0  0  0  0  0  0  0  0
    3.1667   -2.2917    0.0000 C   0  0  0  0  0  0  0  0  0  0  0  0
    2.0792   -1.5042    0.0000 C   0  0  0  0  0  0  0  0  0  0  0  0
    2.7542   -1.0250    0.0000 N   0  0  0  0  0  0  0  0  0  0  0  0
    3.4167   -1.5042    0.0000 C   0  0  0  0  0  0  0  0  0  0  0  0
    1.8542   -2.9417    0.0000 C   0  0  0  0  0  0  0  0  0  0  0  0
    3.6417   -2.9542    0.0000 N   0  0  0  0  0  0  0  0  0  0  0  0
    1.4667   -1.1792    0.0000 O   0  0  0  0  0  0  0  0  0  0  0  0
    4.2042   -1.2542    0.0000 O   0  0  0  0  0  0  0  0  0  0  0  0
    4.4667   -2.8750    0.0000 C   0  0  0  0  0  0  0  0  0  0  0  0
    1.0292   -2.8625    0.0000 C   0  0  0  0  0  0  0  0  0  0  0  0
    4.8042   -2.1292    0.0000 C   0  0  0  0  0  0  0  0  0  0  0  0
    5.6167   -2.0417    0.0000 C   0  0  0  0  0  0  0  0  0  0  0  0
    6.0292   -1.3250    0.0000 Cl  0  0  0  0  0  0  0  0  0  0  0  0
    0.7042   -2.1042    0.0000 O   0  0  0  0  0  0  0  0  0  0  0  0
    2.1917   -3.7042    0.0000 C   0  0  0  0  0  0  0  0  0  0  0  0
    5.7667   -3.4625    0.0000 C   0  0  0  0  0  0  0  0  0  0  0  0
    4.9500   -3.5417    0.0000 C   0  0  0  0  0  0  0  0  0  0  0  0
    0.5417   -3.5167    0.0000 C   0  0  0  0  0  0  0  0  0  0  0  0
    6.1042   -2.7125    0.0000 C   0  0  0  0  0  0  0  0  0  0  0  0
   -0.1208   -2.0167    0.0000 C   0  0  0  0  0  0  0  0  0  0  0  0
    1.7000   -4.3667    0.0000 C   0  0  0  0  0  0  0  0  0  0  0  0
    0.8792   -4.2792    0.0000 C   0  0  0  0  0  0  0  0  0  0  0  0
  2  1  2  0
  3  1  1  0
  4  3  1  0
  5  2  1  0
  6  1  1  0
  7  2  1  0
  8  3  2  0
  9  5  2  0
 10  7  1  0
 11  6  2  0
 12 10  2  0
 13 12  1  0
 14 13  1  0
 15 11  1  0
 16  6  1  0
 17 18  2  0
 18 10  1  0
 19 11  1  0
 20 17  1  0
 21 15  1  0
 22 16  2  0
 23 22  1  0
  5  4  1  0
 19 23  2  0
 13 20  2  0
M  END
>  <ACTIVITY>  (136) 
114

$$$$

     RDKit          2D

 22 24  0  0  0  0  0  0  0  0999 V2000
   -0.1067   -0.0616    0.0000 C   0  0  0  0  0  0  0  0  0  0  0  0
    0.6078   -0.4741    0.0000 O   0  0  0  0  0  0  0  0  0  0  0  0
    1.3222   -0.0616    0.0000 C   0  0  0  0  0  0  0  0  0  0  0  0
    1.3222    0.7634    0.0000 C   0  0  0  0  0  0  0  0  0  0  0  0
    2.0367    1.1759    0.0000 C   0  0  0  0  0  0  0  0  0  0  0  0
    2.7512    0.7634    0.0000 C   0  0  0  0  0  0  0  0  0  0  0  0
    2.7512   -0.0616    0.0000 C   0  0  0  0  0  0  0  0  0  0  0  0
    2.0367   -0.4741    0.0000 C   0  0  0  0  0  0  0  0  0  0  0  0
    2.0367   -1.2991    0.0000 C   0  0  0  0  0  0  0  0  0  0  0  0
    2.7041   -1.7840    0.0000 C   0  0  0  0  0  0  0  0  0  0  0  0
    3.4888   -1.5291    0.0000 N   0  0  0  0  0  0  0  0  0  0  0  0
    4.1019   -2.0811    0.0000 C   0  0  0  0  0  0  0  0  0  0  0  0
    4.8865   -1.8262    0.0000 C   0  0  0  0  0  0  0  0  0  0  0  0
    5.4996   -2.3782    0.0000 C   0  0  0  0  0  0  0  0  0  0  0  0
    5.3281   -3.1852    0.0000 C   0  0  0  0  0  0  0  0  0  0  0  0
    4.5434   -3.4401    0.0000 C   0  0  0  0  0  0  0  0  0  0  0  0
    3.9303   -2.8881    0.0000 C   0  0  0  0  0  0  0  0  0  0  0  0
    2.4492   -2.5687    0.0000 C   0  0  0  0  0  0  0  0  0  0  0  0
    2.9341   -3.2361    0.0000 O   0  0  0  0  0  0  0  0  0  0  0  0
    1.6242   -2.5687    0.0000 N   0  0  0  0  0  0  0  0  0  0  0  0
    1.3693   -1.7840    0.0000 C   0  0  0  0  0  0  0  0  0  0  0  0
    0.5846   -1.5291    0.0000 O   0  0  0  0  0  0  0  0  0  0  0  0
  1  2  1  0
  2  3  1  0
  3  4  2  0
  4  5  1  0
  5  6  2  0
  6  7  1  0
  7  8  2  0
  3  8  1  0
  8  9  1  0
  9 10  2  0
 10 11  1  0
 11 12  1  0
 12 13  2  0
 13 14  1  0
 14 15  2  0
 15 16  1  0
 16 17  2  0
 12 17  1  0
 10 18  1  0
 18 19  2  0
 18 20  1  0
 20 21  1  0
  9 21  1  0
 21 22  2  0
M  END
>  <ACTIVITY>  (137) 
216

$$$$

     RDKit          2D

 23 25  0  0  0  0  0  0  0  0999 V2000
    5.0792   -3.6000    0.0000 C   0  0  0  0  0  0  0  0  0  0  0  0
    5.9042   -3.6042    0.0000 C   0  0  0  0  0  0  0  0  0  0  0  0
    4.8250   -2.8250    0.0000 C   0  0  0  0  0  0  0  0  0  0  0  0
    5.4917   -2.3417    0.0000 N   0  0  0  0  0  0  0  0  0  0  0  0
    6.1625   -2.8250    0.0000 C   0  0  0  0  0  0  0  0  0  0  0  0
    4.5917   -4.2542    0.0000 C   0  0  0  0  0  0  0  0  0  0  0  0
    6.3875   -4.2750    0.0000 N   0  0  0  0  0  0  0  0  0  0  0  0
    4.2042   -2.5000    0.0000 O   0  0  0  0  0  0  0  0  0  0  0  0
    6.9500   -2.5750    0.0000 O   0  0  0  0  0  0  0  0  0  0  0  0
    3.7750   -4.1792    0.0000 C   0  0  0  0  0  0  0  0  0  0  0  0
    7.2042   -4.1917    0.0000 C   0  0  0  0  0  0  0  0  0  0  0  0
    8.8500   -4.0292    0.0000 C   0  0  0  0  0  0  0  0  0  0  0  0
    3.3542   -3.4625    0.0000 Cl  0  0  0  0  0  0  0  0  0  0  0  0
    9.6667   -3.9417    0.0000 S   0  0  0  0  0  0  0  0  0  0  0  0
    7.6917   -4.8625    0.0000 C   0  0  0  0  0  0  0  0  0  0  0  0
    7.5417   -3.4417    0.0000 C   0  0  0  0  0  0  0  0  0  0  0  0
    8.3625   -3.3542    0.0000 C   0  0  0  0  0  0  0  0  0  0  0  0
    8.5042   -4.7792    0.0000 C   0  0  0  0  0  0  0  0  0  0  0  0
    4.9292   -5.0167    0.0000 C   0  0  0  0  0  0  0  0  0  0  0  0
    3.2875   -4.8375    0.0000 C   0  0  0  0  0  0  0  0  0  0  0  0
   10.1542   -4.6125    0.0000 C   0  0  0  0  0  0  0  0  0  0  0  0
    4.4417   -5.6875    0.0000 C   0  0  0  0  0  0  0  0  0  0  0  0
    3.6167   -5.5917    0.0000 C   0  0  0  0  0  0  0  0  0  0  0  0
  2  1  2  0
  3  1  1  0
  4  3  1  0
  5  2  1  0
  6  1  1  0
  7  2  1  0
  8  3  2  0
  9  5  2  0
 10  6  2  0
 11  7  1  0
 12 17  2  0
 13 10  1  0
 14 12  1  0
 15 11  1  0
 16 11  2  0
 17 16  1  0
 18 15  2  0
 19  6  1  0
 20 10  1  0
 21 14  1  0
 22 19  2  0
 23 22  1  0
  5  4  1  0
 20 23  2  0
 18 12  1  0
M  END
>  <ACTIVITY>  (138) 
161

$$$$

     RDKit          2D

 25 27  0  0  0  0  0  0  0  0999 V2000
    5.0792   -3.6000    0.0000 C   0  0  0  0  0  0  0  0  0  0  0  0
    5.9042   -3.6042    0.0000 C   0  0  0  0  0  0  0  0  0  0  0  0
    4.8250   -2.8250    0.0000 C   0  0  0  0  0  0  0  0  0  0  0  0
    5.4917   -2.3417    0.0000 N   0  0  0  0  0  0  0  0  0  0  0  0
    6.1625   -2.8250    0.0000 C   0  0  0  0  0  0  0  0  0  0  0  0
    8.3625   -3.3542    0.0000 C   0  0  0  0  0  0  0  0  0  0  0  0
    4.5917   -4.2542    0.0000 C   0  0  0  0  0  0  0  0  0  0  0  0
    6.3875   -4.2750    0.0000 N   0  0  0  0  0  0  0  0  0  0  0  0
    8.6917   -2.6042    0.0000 C   0  0  0  0  0  0  0  0  0  0  0  0
    8.8500   -4.0292    0.0000 C   0  0  0  0  0  0  0  0  0  0  0  0
    7.5417   -3.4417    0.0000 C   0  0  0  0  0  0  0  0  0  0  0  0
    4.2042   -2.5000    0.0000 O   0  0  0  0  0  0  0  0  0  0  0  0
    6.9500   -2.5750    0.0000 O   0  0  0  0  0  0  0  0  0  0  0  0
    7.2042   -4.1917    0.0000 C   0  0  0  0  0  0  0  0  0  0  0  0
    3.7750   -4.1792    0.0000 C   0  0  0  0  0  0  0  0  0  0  0  0
    8.2125   -1.9375    0.0000 O   0  0  0  0  0  0  0  0  0  0  0  0
    8.5042   -4.7792    0.0000 C   0  0  0  0  0  0  0  0  0  0  0  0
    9.5167   -2.5167    0.0000 O   0  0  0  0  0  0  0  0  0  0  0  0
    7.6917   -4.8625    0.0000 C   0  0  0  0  0  0  0  0  0  0  0  0
    9.6750   -4.0292    0.0000 Cl  0  0  0  0  0  0  0  0  0  0  0  0
    3.3542   -3.4625    0.0000 Cl  0  0  0  0  0  0  0  0  0  0  0  0
    4.9292   -5.0167    0.0000 C   0  0  0  0  0  0  0  0  0  0  0  0
    3.2875   -4.8375    0.0000 C   0  0  0  0  0  0  0  0  0  0  0  0
    4.4417   -5.6875    0.0000 C   0  0  0  0  0  0  0  0  0  0  0  0
    3.6167   -5.5917    0.0000 C   0  0  0  0  0  0  0  0  0  0  0  0
  2  1  2  0
  3  1  1  0
  4  3  1  0
  5  2  1  0
  6 11  2  0
  7  1  1  0
  8  2  1  0
  9  6  1  0
 10 17  2  0
 11 14  1  0
 12  3  2  0
 13  5  2  0
 14  8  1  0
 15  7  2  0
 16  9  2  0
 17 19  1  0
 18  9  1  0
 19 14  2  0
 20 10  1  0
 21 15  1  0
 22  7  1  0
 23 15  1  0
 24 22  2  0
 25 24  1  0
  5  4  1  0
 23 25  2  0
  6 10  1  0
M  END
>  <ACTIVITY>  (139) 
74

$$$$

     RDKit          2D

 24 26  0  0  0  0  0  0  0  0999 V2000
    5.0792   -3.6000    0.0000 C   0  0  0  0  0  0  0  0  0  0  0  0
    5.9042   -3.6042    0.0000 C   0  0  0  0  0  0  0  0  0  0  0  0
    4.8250   -2.8250    0.0000 C   0  0  0  0  0  0  0  0  0  0  0  0
    5.4917   -2.3417    0.0000 N   0  0  0  0  0  0  0  0  0  0  0  0
    6.1625   -2.8250    0.0000 C   0  0  0  0  0  0  0  0  0  0  0  0
    4.5917   -4.2542    0.0000 C   0  0  0  0  0  0  0  0  0  0  0  0
    6.3875   -4.2750    0.0000 N   0  0  0  0  0  0  0  0  0  0  0  0
    8.6917   -2.6042    0.0000 C   0  0  0  0  0  0  0  0  0  0  0  0
    8.3625   -3.3542    0.0000 C   0  0  0  0  0  0  0  0  0  0  0  0
    4.2042   -2.5000    0.0000 O   0  0  0  0  0  0  0  0  0  0  0  0
    6.9500   -2.5750    0.0000 O   0  0  0  0  0  0  0  0  0  0  0  0
    7.2042   -4.1917    0.0000 C   0  0  0  0  0  0  0  0  0  0  0  0
    3.7750   -4.1792    0.0000 C   0  0  0  0  0  0  0  0  0  0  0  0
    7.5417   -3.4417    0.0000 C   0  0  0  0  0  0  0  0  0  0  0  0
    8.2125   -1.9375    0.0000 O   0  0  0  0  0  0  0  0  0  0  0  0
    9.5167   -2.5167    0.0000 O   0  0  0  0  0  0  0  0  0  0  0  0
    3.3542   -3.4625    0.0000 Cl  0  0  0  0  0  0  0  0  0  0  0  0
    4.9292   -5.0167    0.0000 C   0  0  0  0  0  0  0  0  0  0  0  0
    8.8500   -4.0292    0.0000 C   0  0  0  0  0  0  0  0  0  0  0  0
    8.5042   -4.7792    0.0000 C   0  0  0  0  0  0  0  0  0  0  0  0
    7.6917   -4.8625    0.0000 C   0  0  0  0  0  0  0  0  0  0  0  0
    3.2875   -4.8375    0.0000 C   0  0  0  0  0  0  0  0  0  0  0  0
    4.4417   -5.6875    0.0000 C   0  0  0  0  0  0  0  0  0  0  0  0
    3.6167   -5.5917    0.0000 C   0  0  0  0  0  0  0  0  0  0  0  0
  2  1  2  0
  3  1  1  0
  4  3  1  0
  5  2  1  0
  6  1  1  0
  7  2  1  0
  8  9  1  0
  9 14  2  0
 10  3  2  0
 11  5  2  0
 12  7  1  0
 13  6  2  0
 14 12  1  0
 15  8  2  0
 16  8  1  0
 17 13  1  0
 18  6  1  0
 19 20  2  0
 20 21  1  0
 21 12  2  0
 22 13  1  0
 23 18  2  0
 24 23  1  0
  5  4  1  0
 22 24  2  0
  9 19  1  0
M  END
>  <ACTIVITY>  (140) 
136

$$$$

     RDKit          2D

 24 26  0  0  0  0  0  0  0  0999 V2000
   -2.1434    1.2375    0.0000 O   0  0  0  0  0  0  0  0  0  0  0  0
   -1.4289    0.8250    0.0000 C   0  0  0  0  0  0  0  0  0  0  0  0
   -0.7145    1.2375    0.0000 C   0  0  0  0  0  0  0  0  0  0  0  0
   -0.7145    2.0625    0.0000 Cl  0  0  0  0  0  0  0  0  0  0  0  0
    0.0000    0.8250    0.0000 C   0  0  0  0  0  0  0  0  0  0  0  0
    0.0000    0.0000    0.0000 C   0  0  0  0  0  0  0  0  0  0  0  0
    0.7145   -0.4125    0.0000 N   0  0  0  0  0  0  0  0  0  0  0  0
    0.7145   -1.2375    0.0000 C   0  0  0  0  0  0  0  0  0  0  0  0
    1.3819   -1.7224    0.0000 C   0  0  0  0  0  0  0  0  0  0  0  0
    1.1270   -2.5070    0.0000 C   0  0  0  0  0  0  0  0  0  0  0  0
    1.6119   -3.1745    0.0000 O   0  0  0  0  0  0  0  0  0  0  0  0
    0.3020   -2.5070    0.0000 N   0  0  0  0  0  0  0  0  0  0  0  0
    0.0470   -1.7224    0.0000 C   0  0  0  0  0  0  0  0  0  0  0  0
   -0.7376   -1.4675    0.0000 O   0  0  0  0  0  0  0  0  0  0  0  0
    2.1665   -1.4675    0.0000 C   0  0  0  0  0  0  0  0  0  0  0  0
    2.3381   -0.6605    0.0000 C   0  0  0  0  0  0  0  0  0  0  0  0
    3.1227   -0.4056    0.0000 C   0  0  0  0  0  0  0  0  0  0  0  0
    3.7358   -0.9576    0.0000 C   0  0  0  0  0  0  0  0  0  0  0  0
    3.5642   -1.7646    0.0000 C   0  0  0  0  0  0  0  0  0  0  0  0
    2.7796   -2.0195    0.0000 C   0  0  0  0  0  0  0  0  0  0  0  0
    2.6081   -2.8265    0.0000 Cl  0  0  0  0  0  0  0  0  0  0  0  0
   -0.7145   -0.4125    0.0000 C   0  0  0  0  0  0  0  0  0  0  0  0
   -1.4289    0.0000    0.0000 C   0  0  0  0  0  0  0  0  0  0  0  0
   -2.1434   -0.4125    0.0000 Cl  0  0  0  0  0  0  0  0  0  0  0  0
  1  2  1  0
  2  3  2  0
  3  4  1  0
  3  5  1  0
  5  6  2  0
  6  7  1  0
  7  8  1  0
  8  9  2  0
  9 10  1  0
 10 11  2  0
 10 12  1  0
 12 13  1  0
  8 13  1  0
 13 14  2  0
  9 15  1  0
 15 16  2  0
 16 17  1  0
 17 18  2  0
 18 19  1  0
 19 20  2  0
 15 20  1  0
 20 21  1  0
  6 22  1  0
 22 23  2  0
  2 23  1  0
 23 24  1  0
M  END
>  <ACTIVITY>  (141) 
93

$$$$

     RDKit          2D

 23 25  0  0  0  0  0  0  0  0999 V2000
    5.0792   -3.6000    0.0000 C   0  0  0  0  0  0  0  0  0  0  0  0
    5.9042   -3.6042    0.0000 C   0  0  0  0  0  0  0  0  0  0  0  0
    4.8250   -2.8250    0.0000 C   0  0  0  0  0  0  0  0  0  0  0  0
    5.4917   -2.3417    0.0000 N   0  0  0  0  0  0  0  0  0  0  0  0
    6.1625   -2.8250    0.0000 C   0  0  0  0  0  0  0  0  0  0  0  0
    4.5917   -4.2542    0.0000 C   0  0  0  0  0  0  0  0  0  0  0  0
    6.3875   -4.2750    0.0000 N   0  0  0  0  0  0  0  0  0  0  0  0
    8.3625   -3.3542    0.0000 C   0  0  0  0  0  0  0  0  0  0  0  0
    7.5417   -3.4417    0.0000 C   0  0  0  0  0  0  0  0  0  0  0  0
    4.2042   -2.5000    0.0000 O   0  0  0  0  0  0  0  0  0  0  0  0
    7.2042   -4.1917    0.0000 C   0  0  0  0  0  0  0  0  0  0  0  0
    6.9500   -2.5750    0.0000 O   0  0  0  0  0  0  0  0  0  0  0  0
    3.7750   -4.1792    0.0000 C   0  0  0  0  0  0  0  0  0  0  0  0
    8.8500   -4.0292    0.0000 C   0  0  0  0  0  0  0  0  0  0  0  0
    8.5042   -4.7792    0.0000 C   0  0  0  0  0  0  0  0  0  0  0  0
    8.7667   -2.6417    0.0000 Cl  0  0  0  0  0  0  0  0  0  0  0  0
    7.6917   -4.8625    0.0000 C   0  0  0  0  0  0  0  0  0  0  0  0
    3.3542   -3.4625    0.0000 Cl  0  0  0  0  0  0  0  0  0  0  0  0
    9.6667   -3.9417    0.0000 O   0  0  0  0  0  0  0  0  0  0  0  0
    4.9292   -5.0167    0.0000 C   0  0  0  0  0  0  0  0  0  0  0  0
    3.2875   -4.8375    0.0000 C   0  0  0  0  0  0  0  0  0  0  0  0
    4.4417   -5.6875    0.0000 C   0  0  0  0  0  0  0  0  0  0  0  0
    3.6167   -5.5917    0.0000 C   0  0  0  0  0  0  0  0  0  0  0  0
  2  1  2  0
  3  1  1  0
  4  3  1  0
  5  2  1  0
  6  1  1  0
  7  2  1  0
  8  9  2  0
  9 11  1  0
 10  3  2  0
 11  7  1  0
 12  5  2  0
 13  6  2  0
 14 15  2  0
 15 17  1  0
 16  8  1  0
 17 11  2  0
 18 13  1  0
 19 14  1  0
 20  6  1  0
 21 13  1  0
 22 20  2  0
 23 22  1  0
  5  4  1  0
 21 23  2  0
  8 14  1  0
M  END
>  <ACTIVITY>  (142) 
152

$$$$

     RDKit          2D

 22 24  0  0  0  0  0  0  0  0999 V2000
   -2.1434   -0.4125    0.0000 O   0  0  0  0  0  0  0  0  0  0  0  0
   -1.4289    0.0000    0.0000 C   0  0  0  0  0  0  0  0  0  0  0  0
   -1.4289    0.8250    0.0000 C   0  0  0  0  0  0  0  0  0  0  0  0
   -0.7145    1.2375    0.0000 C   0  0  0  0  0  0  0  0  0  0  0  0
    0.0000    0.8250    0.0000 C   0  0  0  0  0  0  0  0  0  0  0  0
    0.0000    0.0000    0.0000 C   0  0  0  0  0  0  0  0  0  0  0  0
    0.7145   -0.4125    0.0000 N   0  0  0  0  0  0  0  0  0  0  0  0
    0.7145   -1.2375    0.0000 C   0  0  0  0  0  0  0  0  0  0  0  0
    1.3819   -1.7224    0.0000 C   0  0  0  0  0  0  0  0  0  0  0  0
    1.1270   -2.5070    0.0000 C   0  0  0  0  0  0  0  0  0  0  0  0
    1.6119   -3.1745    0.0000 O   0  0  0  0  0  0  0  0  0  0  0  0
    0.3020   -2.5070    0.0000 N   0  0  0  0  0  0  0  0  0  0  0  0
    0.0470   -1.7224    0.0000 C   0  0  0  0  0  0  0  0  0  0  0  0
   -0.7376   -1.4675    0.0000 O   0  0  0  0  0  0  0  0  0  0  0  0
    2.1665   -1.4675    0.0000 C   0  0  0  0  0  0  0  0  0  0  0  0
    2.3381   -0.6605    0.0000 C   0  0  0  0  0  0  0  0  0  0  0  0
    3.1227   -0.4056    0.0000 C   0  0  0  0  0  0  0  0  0  0  0  0
    3.7358   -0.9576    0.0000 C   0  0  0  0  0  0  0  0  0  0  0  0
    3.5642   -1.7646    0.0000 C   0  0  0  0  0  0  0  0  0  0  0  0
    2.7796   -2.0195    0.0000 C   0  0  0  0  0  0  0  0  0  0  0  0
    2.6081   -2.8265    0.0000 Cl  0  0  0  0  0  0  0  0  0  0  0  0
   -0.7145   -0.4125    0.0000 C   0  0  0  0  0  0  0  0  0  0  0  0
  1  2  1  0
  2  3  2  0
  3  4  1  0
  4  5  2  0
  5  6  1  0
  6  7  1  0
  7  8  1  0
  8  9  2  0
  9 10  1  0
 10 11  2  0
 10 12  1  0
 12 13  1  0
  8 13  1  0
 13 14  2  0
  9 15  1  0
 15 16  2  0
 16 17  1  0
 17 18  2  0
 18 19  1  0
 19 20  2  0
 15 20  1  0
 20 21  1  0
  6 22  2  0
  2 22  1  0
M  END
>  <ACTIVITY>  (143) 
374

$$$$

     RDKit          2D

 22 24  0  0  0  0  0  0  0  0999 V2000
    2.3417   -2.2792    0.0000 C   0  0  0  0  0  0  0  0  0  0  0  0
    3.1667   -2.2917    0.0000 C   0  0  0  0  0  0  0  0  0  0  0  0
    2.0792   -1.5042    0.0000 C   0  0  0  0  0  0  0  0  0  0  0  0
    2.7542   -1.0250    0.0000 N   0  0  0  0  0  0  0  0  0  0  0  0
    3.4167   -1.5042    0.0000 C   0  0  0  0  0  0  0  0  0  0  0  0
    1.8542   -2.9417    0.0000 C   0  0  0  0  0  0  0  0  0  0  0  0
    3.6417   -2.9542    0.0000 N   0  0  0  0  0  0  0  0  0  0  0  0
    1.4667   -1.1792    0.0000 O   0  0  0  0  0  0  0  0  0  0  0  0
    4.2042   -1.2542    0.0000 O   0  0  0  0  0  0  0  0  0  0  0  0
    4.4667   -2.8750    0.0000 C   0  0  0  0  0  0  0  0  0  0  0  0
    1.0292   -2.8625    0.0000 C   0  0  0  0  0  0  0  0  0  0  0  0
    4.8042   -2.1292    0.0000 C   0  0  0  0  0  0  0  0  0  0  0  0
    5.6167   -2.0417    0.0000 C   0  0  0  0  0  0  0  0  0  0  0  0
    0.6167   -2.1417    0.0000 Cl  0  0  0  0  0  0  0  0  0  0  0  0
    6.0292   -1.3250    0.0000 Cl  0  0  0  0  0  0  0  0  0  0  0  0
    2.1917   -3.7042    0.0000 C   0  0  0  0  0  0  0  0  0  0  0  0
    5.7667   -3.4625    0.0000 C   0  0  0  0  0  0  0  0  0  0  0  0
    4.9500   -3.5417    0.0000 C   0  0  0  0  0  0  0  0  0  0  0  0
    0.5417   -3.5167    0.0000 C   0  0  0  0  0  0  0  0  0  0  0  0
    6.1042   -2.7125    0.0000 C   0  0  0  0  0  0  0  0  0  0  0  0
    1.7000   -4.3667    0.0000 C   0  0  0  0  0  0  0  0  0  0  0  0
    0.8792   -4.2792    0.0000 C   0  0  0  0  0  0  0  0  0  0  0  0
  2  1  2  0
  3  1  1  0
  4  3  1  0
  5  2  1  0
  6  1  1  0
  7  2  1  0
  8  3  2  0
  9  5  2  0
 10  7  1  0
 11  6  2  0
 12 10  2  0
 13 12  1  0
 14 11  1  0
 15 13  1  0
 16  6  1  0
 17 18  2  0
 18 10  1  0
 19 11  1  0
 20 17  1  0
 21 16  2  0
 22 21  1  0
  5  4  1  0
 19 22  2  0
 13 20  2  0
M  END
>  <ACTIVITY>  (144) 
195

$$$$

     RDKit          2D

 21 23  0  0  0  0  0  0  0  0999 V2000
    2.5542   -2.3417    0.0000 C   0  0  0  0  0  0  0  0  0  0  0  0
    3.3792   -2.3542    0.0000 C   0  0  0  0  0  0  0  0  0  0  0  0
    2.3000   -1.5667    0.0000 C   0  0  0  0  0  0  0  0  0  0  0  0
    2.9667   -1.0875    0.0000 N   0  0  0  0  0  0  0  0  0  0  0  0
    3.6375   -1.5667    0.0000 C   0  0  0  0  0  0  0  0  0  0  0  0
    2.0667   -3.0042    0.0000 C   0  0  0  0  0  0  0  0  0  0  0  0
    3.8625   -3.0167    0.0000 N   0  0  0  0  0  0  0  0  0  0  0  0
    1.5167   -1.3125    0.0000 O   0  0  0  0  0  0  0  0  0  0  0  0
    4.4250   -1.3167    0.0000 O   0  0  0  0  0  0  0  0  0  0  0  0
    1.2500   -2.9250    0.0000 C   0  0  0  0  0  0  0  0  0  0  0  0
    4.6792   -2.9375    0.0000 C   0  0  0  0  0  0  0  0  0  0  0  0
    0.8292   -2.2042    0.0000 Cl  0  0  0  0  0  0  0  0  0  0  0  0
    2.4042   -3.7667    0.0000 C   0  0  0  0  0  0  0  0  0  0  0  0
    0.7625   -3.5792    0.0000 C   0  0  0  0  0  0  0  0  0  0  0  0
    5.0167   -2.1917    0.0000 C   0  0  0  0  0  0  0  0  0  0  0  0
    5.1667   -3.6042    0.0000 C   0  0  0  0  0  0  0  0  0  0  0  0
    1.9167   -4.4292    0.0000 C   0  0  0  0  0  0  0  0  0  0  0  0
    1.0917   -4.3417    0.0000 C   0  0  0  0  0  0  0  0  0  0  0  0
    5.9792   -3.5250    0.0000 C   0  0  0  0  0  0  0  0  0  0  0  0
    5.8375   -2.1042    0.0000 C   0  0  0  0  0  0  0  0  0  0  0  0
    6.3250   -2.7750    0.0000 C   0  0  0  0  0  0  0  0  0  0  0  0
  2  1  2  0
  3  1  1  0
  4  3  1  0
  5  2  1  0
  6  1  1  0
  7  2  1  0
  8  3  2  0
  9  5  2  0
 10  6  2  0
 11  7  1  0
 12 10  1  0
 13  6  1  0
 14 10  1  0
 15 11  2  0
 16 11  1  0
 17 13  2  0
 18 17  1  0
 19 16  2  0
 20 15  1  0
 21 19  1  0
  5  4  1  0
 14 18  2  0
 20 21  2  0
M  END
>  <ACTIVITY>  (145) 
216

$$$$

     RDKit          2D

 22 24  0  0  0  0  0  0  0  0999 V2000
    5.0792   -3.6000    0.0000 C   0  0  0  0  0  0  0  0  0  0  0  0
    5.9042   -3.6042    0.0000 C   0  0  0  0  0  0  0  0  0  0  0  0
    4.8250   -2.8250    0.0000 C   0  0  0  0  0  0  0  0  0  0  0  0
    5.4917   -2.3417    0.0000 N   0  0  0  0  0  0  0  0  0  0  0  0
    6.1625   -2.8250    0.0000 C   0  0  0  0  0  0  0  0  0  0  0  0
    6.3875   -4.2750    0.0000 N   0  0  0  0  0  0  0  0  0  0  0  0
    4.5917   -4.2542    0.0000 C   0  0  0  0  0  0  0  0  0  0  0  0
    4.2042   -2.5000    0.0000 O   0  0  0  0  0  0  0  0  0  0  0  0
    6.9500   -2.5750    0.0000 O   0  0  0  0  0  0  0  0  0  0  0  0
    7.2042   -4.1917    0.0000 C   0  0  0  0  0  0  0  0  0  0  0  0
    8.8500   -4.0292    0.0000 C   0  0  0  0  0  0  0  0  0  0  0  0
    9.6667   -3.9417    0.0000 S   0  0  0  0  0  0  0  0  0  0  0  0
    7.5417   -3.4417    0.0000 C   0  0  0  0  0  0  0  0  0  0  0  0
    7.6917   -4.8625    0.0000 C   0  0  0  0  0  0  0  0  0  0  0  0
    8.5042   -4.7792    0.0000 C   0  0  0  0  0  0  0  0  0  0  0  0
    8.3625   -3.3542    0.0000 C   0  0  0  0  0  0  0  0  0  0  0  0
    3.7750   -4.1792    0.0000 C   0  0  0  0  0  0  0  0  0  0  0  0
    4.9292   -5.0167    0.0000 C   0  0  0  0  0  0  0  0  0  0  0  0
   10.1542   -4.6125    0.0000 C   0  0  0  0  0  0  0  0  0  0  0  0
    4.4417   -5.6875    0.0000 C   0  0  0  0  0  0  0  0  0  0  0  0
    3.2875   -4.8375    0.0000 C   0  0  0  0  0  0  0  0  0  0  0  0
    3.6167   -5.5917    0.0000 C   0  0  0  0  0  0  0  0  0  0  0  0
  2  1  2  0
  3  1  1  0
  4  3  1  0
  5  2  1  0
  6  2  1  0
  7  1  1  0
  8  3  2  0
  9  5  2  0
 10  6  1  0
 11 15  2  0
 12 11  1  0
 13 10  1  0
 14 10  2  0
 15 14  1  0
 16 13  2  0
 17  7  2  0
 18  7  1  0
 19 12  1  0
 20 18  2  0
 21 17  1  0
 22 20  1  0
  5  4  1  0
 21 22  2  0
 16 11  1  0
M  END
>  <ACTIVITY>  (146) 
404

$$$$

     RDKit          2D

 24 26  0  0  0  0  0  0  0  0999 V2000
    5.0792   -3.6000    0.0000 C   0  0  0  0  0  0  0  0  0  0  0  0
    5.9042   -3.6042    0.0000 C   0  0  0  0  0  0  0  0  0  0  0  0
    4.8250   -2.8250    0.0000 C   0  0  0  0  0  0  0  0  0  0  0  0
    5.4917   -2.3417    0.0000 N   0  0  0  0  0  0  0  0  0  0  0  0
    6.1625   -2.8250    0.0000 C   0  0  0  0  0  0  0  0  0  0  0  0
    8.3625   -3.3542    0.0000 C   0  0  0  0  0  0  0  0  0  0  0  0
    6.3875   -4.2750    0.0000 N   0  0  0  0  0  0  0  0  0  0  0  0
    8.6917   -2.6042    0.0000 C   0  0  0  0  0  0  0  0  0  0  0  0
    8.8500   -4.0292    0.0000 C   0  0  0  0  0  0  0  0  0  0  0  0
    7.5417   -3.4417    0.0000 C   0  0  0  0  0  0  0  0  0  0  0  0
    4.5917   -4.2542    0.0000 C   0  0  0  0  0  0  0  0  0  0  0  0
    4.2042   -2.5000    0.0000 O   0  0  0  0  0  0  0  0  0  0  0  0
    6.9500   -2.5750    0.0000 O   0  0  0  0  0  0  0  0  0  0  0  0
    7.2042   -4.1917    0.0000 C   0  0  0  0  0  0  0  0  0  0  0  0
    8.2125   -1.9375    0.0000 O   0  0  0  0  0  0  0  0  0  0  0  0
    8.5042   -4.7792    0.0000 C   0  0  0  0  0  0  0  0  0  0  0  0
    9.5167   -2.5167    0.0000 O   0  0  0  0  0  0  0  0  0  0  0  0
    7.6917   -4.8625    0.0000 C   0  0  0  0  0  0  0  0  0  0  0  0
    9.6750   -4.0292    0.0000 Cl  0  0  0  0  0  0  0  0  0  0  0  0
    4.9292   -5.0167    0.0000 C   0  0  0  0  0  0  0  0  0  0  0  0
    3.7750   -4.1792    0.0000 C   0  0  0  0  0  0  0  0  0  0  0  0
    4.4417   -5.6875    0.0000 C   0  0  0  0  0  0  0  0  0  0  0  0
    3.2875   -4.8375    0.0000 C   0  0  0  0  0  0  0  0  0  0  0  0
    3.6167   -5.5917    0.0000 C   0  0  0  0  0  0  0  0  0  0  0  0
  2  1  2  0
  3  1  1  0
  4  3  1  0
  5  2  1  0
  6 10  2  0
  7  2  1  0
  8  6  1  0
  9 16  2  0
 10 14  1  0
 11  1  1  0
 12  3  2  0
 13  5  2  0
 14  7  1  0
 15  8  2  0
 16 18  1  0
 17  8  1  0
 18 14  2  0
 19  9  1  0
 20 11  2  0
 21 11  1  0
 22 20  1  0
 23 21  2  0
 24 23  1  0
  5  4  1  0
 24 22  2  0
  6  9  1  0
M  END
>  <ACTIVITY>  (147) 
143

$$$$

     RDKit          2D

 23 25  0  0  0  0  0  0  0  0999 V2000
    5.0792   -3.6000    0.0000 C   0  0  0  0  0  0  0  0  0  0  0  0
    5.9042   -3.6042    0.0000 C   0  0  0  0  0  0  0  0  0  0  0  0
    4.8250   -2.8250    0.0000 C   0  0  0  0  0  0  0  0  0  0  0  0
    5.4917   -2.3417    0.0000 N   0  0  0  0  0  0  0  0  0  0  0  0
    6.1625   -2.8250    0.0000 C   0  0  0  0  0  0  0  0  0  0  0  0
    6.3875   -4.2750    0.0000 N   0  0  0  0  0  0  0  0  0  0  0  0
    8.6917   -2.6042    0.0000 C   0  0  0  0  0  0  0  0  0  0  0  0
    8.3625   -3.3542    0.0000 C   0  0  0  0  0  0  0  0  0  0  0  0
    4.5917   -4.2542    0.0000 C   0  0  0  0  0  0  0  0  0  0  0  0
    4.2042   -2.5000    0.0000 O   0  0  0  0  0  0  0  0  0  0  0  0
    6.9500   -2.5750    0.0000 O   0  0  0  0  0  0  0  0  0  0  0  0
    7.2042   -4.1917    0.0000 C   0  0  0  0  0  0  0  0  0  0  0  0
    7.5417   -3.4417    0.0000 C   0  0  0  0  0  0  0  0  0  0  0  0
    8.2125   -1.9375    0.0000 O   0  0  0  0  0  0  0  0  0  0  0  0
    9.5167   -2.5167    0.0000 O   0  0  0  0  0  0  0  0  0  0  0  0
    8.8500   -4.0292    0.0000 C   0  0  0  0  0  0  0  0  0  0  0  0
    8.5042   -4.7792    0.0000 C   0  0  0  0  0  0  0  0  0  0  0  0
    7.6917   -4.8625    0.0000 C   0  0  0  0  0  0  0  0  0  0  0  0
    3.7750   -4.1792    0.0000 C   0  0  0  0  0  0  0  0  0  0  0  0
    4.9292   -5.0167    0.0000 C   0  0  0  0  0  0  0  0  0  0  0  0
    3.2875   -4.8375    0.0000 C   0  0  0  0  0  0  0  0  0  0  0  0
    4.4417   -5.6875    0.0000 C   0  0  0  0  0  0  0  0  0  0  0  0
    3.6167   -5.5917    0.0000 C   0  0  0  0  0  0  0  0  0  0  0  0
  2  1  2  0
  3  1  1  0
  4  3  1  0
  5  2  1  0
  6  2  1  0
  7  8  1  0
  8 13  2  0
  9  1  1  0
 10  3  2  0
 11  5  2  0
 12  6  1  0
 13 12  1  0
 14  7  2  0
 15  7  1  0
 16 17  2  0
 17 18  1  0
 18 12  2  0
 19  9  2  0
 20  9  1  0
 21 19  1  0
 22 20  2  0
 23 22  1  0
  5  4  1  0
 21 23  2  0
  8 16  1  0
M  END
>  <ACTIVITY>  (148) 
291

$$$$

     RDKit          2D

 23 25  0  0  0  0  0  0  0  0999 V2000
    5.9042   -3.6042    0.0000 C   0  0  0  0  0  0  0  0  0  0  0  0
    5.0792   -3.6000    0.0000 C   0  0  0  0  0  0  0  0  0  0  0  0
    4.8250   -2.8250    0.0000 C   0  0  0  0  0  0  0  0  0  0  0  0
    5.4917   -2.3417    0.0000 N   0  0  0  0  0  0  0  0  0  0  0  0
    6.1625   -2.8250    0.0000 C   0  0  0  0  0  0  0  0  0  0  0  0
    6.3875   -4.2750    0.0000 N   0  0  0  0  0  0  0  0  0  0  0  0
    8.8500   -4.0292    0.0000 C   0  0  0  0  0  0  0  0  0  0  0  0
    8.5042   -4.7792    0.0000 C   0  0  0  0  0  0  0  0  0  0  0  0
    8.3625   -3.3542    0.0000 C   0  0  0  0  0  0  0  0  0  0  0  0
    7.2042   -4.1917    0.0000 C   0  0  0  0  0  0  0  0  0  0  0  0
    7.6917   -4.8625    0.0000 C   0  0  0  0  0  0  0  0  0  0  0  0
    7.5417   -3.4417    0.0000 C   0  0  0  0  0  0  0  0  0  0  0  0
    4.5917   -4.2542    0.0000 C   0  0  0  0  0  0  0  0  0  0  0  0
    4.2042   -2.5000    0.0000 O   0  0  0  0  0  0  0  0  0  0  0  0
    6.9500   -2.5750    0.0000 O   0  0  0  0  0  0  0  0  0  0  0  0
    8.7667   -2.6417    0.0000 Cl  0  0  0  0  0  0  0  0  0  0  0  0
    9.0917   -5.3625    0.0000 Cl  0  0  0  0  0  0  0  0  0  0  0  0
    9.6667   -3.9417    0.0000 O   0  0  0  0  0  0  0  0  0  0  0  0
    3.7750   -4.1792    0.0000 C   0  0  0  0  0  0  0  0  0  0  0  0
    4.9292   -5.0167    0.0000 C   0  0  0  0  0  0  0  0  0  0  0  0
    3.2875   -4.8375    0.0000 C   0  0  0  0  0  0  0  0  0  0  0  0
    4.4417   -5.6875    0.0000 C   0  0  0  0  0  0  0  0  0  0  0  0
    3.6167   -5.5917    0.0000 C   0  0  0  0  0  0  0  0  0  0  0  0
  2  1  2  0
  3  2  1  0
  4  5  1  0
  5  1  1  0
  6  1  1  0
  7  9  2  0
  8 11  2  0
  9 12  1  0
 10  6  1  0
 11 10  1  0
 12 10  2  0
 13  2  1  0
 14  3  2  0
 15  5  2  0
 16  9  1  0
 17  8  1  0
 18  7  1  0
 19 13  2  0
 20 13  1  0
 21 19  1  0
 22 20  2  0
 23 22  1  0
  4  3  1  0
  8  7  1  0
 21 23  2  0
M  END
>  <ACTIVITY>  (149) 
149

$$$$

     RDKit          2D

 21 23  0  0  0  0  0  0  0  0999 V2000
    2.3417   -2.2792    0.0000 C   0  0  0  0  0  0  0  0  0  0  0  0
    3.1667   -2.2917    0.0000 C   0  0  0  0  0  0  0  0  0  0  0  0
    2.0792   -1.5042    0.0000 C   0  0  0  0  0  0  0  0  0  0  0  0
    2.7542   -1.0250    0.0000 N   0  0  0  0  0  0  0  0  0  0  0  0
    3.4167   -1.5042    0.0000 C   0  0  0  0  0  0  0  0  0  0  0  0
    3.6417   -2.9542    0.0000 N   0  0  0  0  0  0  0  0  0  0  0  0
    1.8542   -2.9417    0.0000 C   0  0  0  0  0  0  0  0  0  0  0  0
    1.4667   -1.1792    0.0000 O   0  0  0  0  0  0  0  0  0  0  0  0
    4.2042   -1.2542    0.0000 O   0  0  0  0  0  0  0  0  0  0  0  0
    4.4667   -2.8750    0.0000 C   0  0  0  0  0  0  0  0  0  0  0  0
    4.8042   -2.1292    0.0000 C   0  0  0  0  0  0  0  0  0  0  0  0
    5.6167   -2.0417    0.0000 C   0  0  0  0  0  0  0  0  0  0  0  0
    5.9542   -1.2875    0.0000 O   0  0  0  0  0  0  0  0  0  0  0  0
    5.7667   -3.4625    0.0000 C   0  0  0  0  0  0  0  0  0  0  0  0
    4.9500   -3.5417    0.0000 C   0  0  0  0  0  0  0  0  0  0  0  0
    2.1917   -3.7042    0.0000 C   0  0  0  0  0  0  0  0  0  0  0  0
    1.0292   -2.8625    0.0000 C   0  0  0  0  0  0  0  0  0  0  0  0
    6.1042   -2.7125    0.0000 C   0  0  0  0  0  0  0  0  0  0  0  0
    0.5417   -3.5167    0.0000 C   0  0  0  0  0  0  0  0  0  0  0  0
    1.7000   -4.3667    0.0000 C   0  0  0  0  0  0  0  0  0  0  0  0
    0.8792   -4.2792    0.0000 C   0  0  0  0  0  0  0  0  0  0  0  0
  2  1  2  0
  3  1  1  0
  4  3  1  0
  5  2  1  0
  6  2  1  0
  7  1  1  0
  8  3  2  0
  9  5  2  0
 10  6  1  0
 11 10  2  0
 12 11  1  0
 13 12  1  0
 14 15  2  0
 15 10  1  0
 16  7  2  0
 17  7  1  0
 18 14  1  0
 19 17  2  0
 20 16  1  0
 21 19  1  0
  5  4  1  0
 20 21  2  0
 12 18  2  0
M  END
>  <ACTIVITY>  (150) 
704

$$$$

     RDKit          2D

 21 23  0  0  0  0  0  0  0  0999 V2000
    2.3417   -2.2792    0.0000 C   0  0  0  0  0  0  0  0  0  0  0  0
    3.1667   -2.2917    0.0000 C   0  0  0  0  0  0  0  0  0  0  0  0
    2.0792   -1.5042    0.0000 C   0  0  0  0  0  0  0  0  0  0  0  0
    2.7542   -1.0250    0.0000 N   0  0  0  0  0  0  0  0  0  0  0  0
    3.4167   -1.5042    0.0000 C   0  0  0  0  0  0  0  0  0  0  0  0
    3.6417   -2.9542    0.0000 N   0  0  0  0  0  0  0  0  0  0  0  0
    1.8542   -2.9417    0.0000 C   0  0  0  0  0  0  0  0  0  0  0  0
    1.4667   -1.1792    0.0000 O   0  0  0  0  0  0  0  0  0  0  0  0
    4.2042   -1.2542    0.0000 O   0  0  0  0  0  0  0  0  0  0  0  0
    4.4667   -2.8750    0.0000 C   0  0  0  0  0  0  0  0  0  0  0  0
    4.8042   -2.1292    0.0000 C   0  0  0  0  0  0  0  0  0  0  0  0
    5.6167   -2.0417    0.0000 C   0  0  0  0  0  0  0  0  0  0  0  0
    6.0292   -1.3250    0.0000 Cl  0  0  0  0  0  0  0  0  0  0  0  0
    5.7667   -3.4625    0.0000 C   0  0  0  0  0  0  0  0  0  0  0  0
    4.9500   -3.5417    0.0000 C   0  0  0  0  0  0  0  0  0  0  0  0
    2.1917   -3.7042    0.0000 C   0  0  0  0  0  0  0  0  0  0  0  0
    1.0292   -2.8625    0.0000 C   0  0  0  0  0  0  0  0  0  0  0  0
    6.1042   -2.7125    0.0000 C   0  0  0  0  0  0  0  0  0  0  0  0
    0.5417   -3.5167    0.0000 C   0  0  0  0  0  0  0  0  0  0  0  0
    1.7000   -4.3667    0.0000 C   0  0  0  0  0  0  0  0  0  0  0  0
    0.8792   -4.2792    0.0000 C   0  0  0  0  0  0  0  0  0  0  0  0
  2  1  2  0
  3  1  1  0
  4  3  1  0
  5  2  1  0
  6  2  1  0
  7  1  1  0
  8  3  2  0
  9  5  2  0
 10  6  1  0
 11 10  2  0
 12 11  1  0
 13 12  1  0
 14 15  2  0
 15 10  1  0
 16  7  2  0
 17  7  1  0
 18 14  1  0
 19 17  2  0
 20 16  1  0
 21 19  1  0
  5  4  1  0
 20 21  2  0
 12 18  2  0
M  END
>  <ACTIVITY>  (151) 
301

$$$$
