
     RDKit          2D

 41 40  0  0  0  0  0  0  0  0999 V2000
    1.2990   -0.7500    0.0000 N   0  0  0  0  0  0  0  0  0  0  0  0
    1.2990    0.7500    0.0000 C   0  0  0  0  0  0  0  0  0  0  0  0
    0.0000    1.5000    0.0000 C   0  0  0  0  0  0  0  0  0  0  0  0
   -1.2990    0.7500    0.0000 N   0  0  0  0  0  0  0  0  0  0  0  0
   -1.2990   -0.7500    0.0000 C   0  0  0  0  0  0  0  0  0  0  0  0
    0.0000   -1.5000    0.0000 C   0  0  0  0  0  0  0  0  0  0  0  0
   -2.5987    1.5004    0.0000 C   0  0  0  0  0  0  0  0  0  0  0  0
   -2.6012    3.0004    0.0000 C   0  0  0  0  0  0  0  0  0  0  0  0
   -3.9014    3.7484    0.0000 C   0  0  0  0  0  0  0  0  0  0  0  0
   -5.1993    2.9963    0.0000 C   0  0  0  0  0  0  0  0  0  0  0  0
   -5.1969    1.4963    0.0000 C   0  0  0  0  0  0  0  0  0  0  0  0
   -3.8967    0.7484    0.0000 C   0  0  0  0  0  0  0  0  0  0  0  0
   -1.5630    3.6021    0.0000 Cl  0  0  0  0  0  0  0  0  0  0  0  0
   -3.9034    4.9484    0.0000 Cl  0  0  0  0  0  0  0  0  0  0  0  0
    5.1873   -7.5117    0.0000 C   0  0  0  0  0  0  0  0  0  0  0  0
    5.1894   -6.0109    0.0000 C   0  0  0  0  0  0  0  0  0  0  0  0
    3.8912   -5.2578    0.0000 N   0  0  0  0  0  0  0  0  0  0  0  0
    6.2297   -5.4127    0.0000 O   0  0  0  0  0  0  0  0  0  0  0  0
    4.4293   -9.7955    0.0000 C   0  0  0  0  0  0  0  0  0  0  0  0
    3.9707   -8.3673    0.0000 N   0  0  0  0  0  0  0  0  0  0  0  0
    6.3978   -8.3758    0.0000 C   0  0  0  0  0  0  0  0  0  0  0  0
    5.9293   -9.8007    0.0000 N   0  0  0  0  0  0  0  0  0  0  0  0
    6.8072  -11.0179    0.0000 C   0  0  0  0  0  0  0  0  0  0  0  0
    7.5381   -8.0021    0.0000 C   0  0  0  0  0  0  0  0  0  0  0  0
    3.7206  -10.7639    0.0000 C   0  0  0  0  0  0  0  0  0  0  0  0
    3.8933   -3.7570    0.0000 C   0  0  0  0  0  0  0  0  0  0  0  0
    2.5951   -3.0039    0.0000 C   0  0  0  0  0  0  0  0  0  0  0  0
    2.5973   -1.5031    0.0000 C   0  0  0  0  0  0  0  0  0  0  0  0
    8.2847  -10.7495    0.0000 C   0  0  0  0  0  0  0  0  0  0  0  0
    9.2512  -11.8966    0.0000 C   0  0  0  0  0  0  0  0  0  0  0  0
    8.7411  -13.3072    0.0000 C   0  0  0  0  0  0  0  0  0  0  0  0
    7.2644  -13.5706    0.0000 C   0  0  0  0  0  0  0  0  0  0  0  0
    6.2979  -12.4235    0.0000 C   0  0  0  0  0  0  0  0  0  0  0  0
    4.8201  -12.6854    0.0000 C   0  0  0  0  0  0  0  0  0  0  0  0
    4.4098  -13.8131    0.0000 F   0  0  0  0  0  0  0  0  0  0  0  0
    4.0483  -11.7665    0.0000 F   0  0  0  0  0  0  0  0  0  0  0  0
    3.6384  -12.8941    0.0000 F   0  0  0  0  0  0  0  0  0  0  0  0
   19.2512   -4.4233    0.0000 Cl  0  0  0  0  0  0  0  0  0  0  0  0
   16.7512   -4.4233    0.0000 Cl  0  0  0  0  0  0  0  0  0  0  0  0
   14.2512   -4.4233    0.0000 Cl  0  0  0  0  0  0  0  0  0  0  0  0
   11.7512   -4.4233    0.0000 Cl  0  0  0  0  0  0  0  0  0  0  0  0
 19 20  2  0
  2  3  1  0
  9 10  2  0
  3  4  1  0
 10 11  1  0
 20 15  1  0
 15 21  2  0
 21 22  1  0
 22 19  1  0
  4  5  1  0
 22 23  1  0
 11 12  2  0
 21 24  1  0
 12  7  1  0
 19 25  1  0
  4  7  1  0
 17 26  1  0
  5  6  1  0
 26 27  1  0
  8 13  1  0
 27 28  1  0
 28  1  1  0
  1  2  1  0
 23 29  2  0
  9 14  1  0
 29 30  1  0
 30 31  2  0
  7  8  2  0
 31 32  1  0
 15 16  1  0
 32 33  2  0
 33 23  1  0
  1  6  1  0
 33 34  1  0
 16 17  1  0
 34 35  1  0
  8  9  1  0
 34 36  1  0
 16 18  2  0
 34 37  1  0
M  END
>  <ACTIVITY>  (1) 
58

$$$$

     RDKit          2D

 41 41  0  0  0  0  0  0  0  0999 V2000
  -11.8359    7.8605    0.0000 N   0  0  0  0  0  0  0  0  0  0  0  0
  -12.4520    9.2282    0.0000 C   0  0  0  0  0  0  0  0  0  0  0  0
  -13.9444    9.3786    0.0000 C   0  0  0  0  0  0  0  0  0  0  0  0
  -14.8209    8.1613    0.0000 N   0  0  0  0  0  0  0  0  0  0  0  0
  -14.2050    6.7936    0.0000 C   0  0  0  0  0  0  0  0  0  0  0  0
  -12.7125    6.6432    0.0000 C   0  0  0  0  0  0  0  0  0  0  0  0
  -16.3141    8.3118    0.0000 C   0  0  0  0  0  0  0  0  0  0  0  0
  -16.9323    9.6786    0.0000 C   0  0  0  0  0  0  0  0  0  0  0  0
  -18.4250    9.8266    0.0000 C   0  0  0  0  0  0  0  0  0  0  0  0
  -19.2995    8.6080    0.0000 C   0  0  0  0  0  0  0  0  0  0  0  0
  -18.6814    7.2413    0.0000 C   0  0  0  0  0  0  0  0  0  0  0  0
  -17.1888    7.0932    0.0000 C   0  0  0  0  0  0  0  0  0  0  0  0
  -16.2327   10.6535    0.0000 Cl  0  0  0  0  0  0  0  0  0  0  0  0
  -18.9195   10.9200    0.0000 Cl  0  0  0  0  0  0  0  0  0  0  0  0
   -5.5150    3.2942    0.0000 C   0  0  0  0  0  0  0  0  0  0  0  0
   -6.1284    4.6612    0.0000 C   0  0  0  0  0  0  0  0  0  0  0  0
   -7.6213    4.8147    0.0000 N   0  0  0  0  0  0  0  0  0  0  0  0
   -5.4255    5.6338    0.0000 O   0  0  0  0  0  0  0  0  0  0  0  0
   -5.2594    0.8807    0.0000 C   0  0  0  0  0  0  0  0  0  0  0  0
   -6.2640    1.9946    0.0000 N   0  0  0  0  0  0  0  0  0  0  0  0
   -4.0476    2.9835    0.0000 C   0  0  0  0  0  0  0  0  0  0  0  0
   -3.9086    1.5029    0.0000 N   0  0  0  0  0  0  0  0  0  0  0  0
   -2.6111    0.7486    0.0000 C   0  0  0  0  0  0  0  0  0  0  0  0
   -3.1517    3.7818    0.0000 C   0  0  0  0  0  0  0  0  0  0  0  0
   -5.5010   -0.2948    0.0000 C   0  0  0  0  0  0  0  0  0  0  0  0
   -8.2357    6.1841    0.0000 C   0  0  0  0  0  0  0  0  0  0  0  0
   -9.7286    6.3376    0.0000 C   0  0  0  0  0  0  0  0  0  0  0  0
  -10.3430    7.7069    0.0000 C   0  0  0  0  0  0  0  0  0  0  0  0
   -2.6111   -0.7486    0.0000 C   0  0  0  0  0  0  0  0  0  0  0  0
   -1.2964   -1.4973    0.0000 C   0  0  0  0  0  0  0  0  0  0  0  0
   -1.2964    1.4973    0.0000 C   0  0  0  0  0  0  0  0  0  0  0  0
    0.0000    0.7486    0.0000 C   0  0  0  0  0  0  0  0  0  0  0  0
    0.0000   -0.7486    0.0000 C   0  0  0  0  0  0  0  0  0  0  0  0
    1.2964   -1.4973    0.0000 O   0  0  0  0  0  0  0  0  0  0  0  0
    2.5929   -0.7486    0.0000 C   0  0  0  0  0  0  0  0  0  0  0  0
    2.5929    0.7486    0.0000 C   0  0  0  0  0  0  0  0  0  0  0  0
    1.2964    1.4973    0.0000 O   0  0  0  0  0  0  0  0  0  0  0  0
   12.5929    4.8484    0.0000 Cl  0  0  0  0  0  0  0  0  0  0  0  0
   10.0929    4.8484    0.0000 Cl  0  0  0  0  0  0  0  0  0  0  0  0
    7.5929    4.8484    0.0000 Cl  0  0  0  0  0  0  0  0  0  0  0  0
    5.0929    4.8484    0.0000 Cl  0  0  0  0  0  0  0  0  0  0  0  0
 19 20  2  0
  2  3  1  0
  9 10  2  0
  3  4  1  0
 10 11  1  0
 20 15  1  0
 15 21  2  0
 21 22  1  0
 22 19  1  0
  4  5  1  0
 22 23  1  0
 11 12  2  0
 21 24  1  0
 12  7  1  0
 19 25  1  0
  4  7  1  0
 17 26  1  0
  5  6  1  0
 26 27  1  0
  8 13  1  0
 27 28  1  0
 28  1  1  0
  1  2  1  0
 23 29  2  0
  9 14  1  0
 29 30  1  0
 30 33  2  0
 32 31  2  0
 31 23  1  0
 32 33  1  0
  7  8  2  0
 15 16  1  0
  1  6  1  0
 16 17  1  0
  8  9  1  0
 16 18  2  0
 32 37  1  0
 33 34  1  0
 34 35  1  0
 35 36  1  0
 36 37  1  0
M  END
>  <ACTIVITY>  (2) 
8.63

$$$$

     RDKit          2D

 43 43  0  0  0  0  0  0  0  0999 V2000
  -11.8359    7.8605    0.0000 N   0  0  0  0  0  0  0  0  0  0  0  0
  -12.4520    9.2282    0.0000 C   0  0  0  0  0  0  0  0  0  0  0  0
  -13.9444    9.3786    0.0000 C   0  0  0  0  0  0  0  0  0  0  0  0
  -14.8209    8.1613    0.0000 N   0  0  0  0  0  0  0  0  0  0  0  0
  -14.2050    6.7936    0.0000 C   0  0  0  0  0  0  0  0  0  0  0  0
  -12.7125    6.6432    0.0000 C   0  0  0  0  0  0  0  0  0  0  0  0
  -16.3141    8.3118    0.0000 C   0  0  0  0  0  0  0  0  0  0  0  0
  -16.9323    9.6786    0.0000 C   0  0  0  0  0  0  0  0  0  0  0  0
  -18.4250    9.8266    0.0000 C   0  0  0  0  0  0  0  0  0  0  0  0
  -19.2995    8.6080    0.0000 C   0  0  0  0  0  0  0  0  0  0  0  0
  -18.6814    7.2413    0.0000 C   0  0  0  0  0  0  0  0  0  0  0  0
  -17.1888    7.0932    0.0000 C   0  0  0  0  0  0  0  0  0  0  0  0
  -16.2327   10.6535    0.0000 Cl  0  0  0  0  0  0  0  0  0  0  0  0
  -18.9195   10.9200    0.0000 Cl  0  0  0  0  0  0  0  0  0  0  0  0
   -5.5150    3.2942    0.0000 C   0  0  0  0  0  0  0  0  0  0  0  0
   -6.1284    4.6612    0.0000 C   0  0  0  0  0  0  0  0  0  0  0  0
   -7.6213    4.8147    0.0000 N   0  0  0  0  0  0  0  0  0  0  0  0
   -5.4255    5.6338    0.0000 O   0  0  0  0  0  0  0  0  0  0  0  0
   -5.2594    0.8807    0.0000 C   0  0  0  0  0  0  0  0  0  0  0  0
   -6.2640    1.9946    0.0000 N   0  0  0  0  0  0  0  0  0  0  0  0
   -4.0476    2.9835    0.0000 C   0  0  0  0  0  0  0  0  0  0  0  0
   -3.9086    1.5029    0.0000 N   0  0  0  0  0  0  0  0  0  0  0  0
   -2.6111    0.7486    0.0000 C   0  0  0  0  0  0  0  0  0  0  0  0
   -3.1517    3.7818    0.0000 C   0  0  0  0  0  0  0  0  0  0  0  0
   -5.5615   -0.5868    0.0000 C   0  0  0  0  0  0  0  0  0  0  0  0
   -8.2357    6.1841    0.0000 C   0  0  0  0  0  0  0  0  0  0  0  0
   -9.7286    6.3376    0.0000 C   0  0  0  0  0  0  0  0  0  0  0  0
  -10.3430    7.7069    0.0000 C   0  0  0  0  0  0  0  0  0  0  0  0
   -2.6111   -0.7486    0.0000 C   0  0  0  0  0  0  0  0  0  0  0  0
   -1.2964   -1.4973    0.0000 C   0  0  0  0  0  0  0  0  0  0  0  0
   -1.2964    1.4973    0.0000 C   0  0  0  0  0  0  0  0  0  0  0  0
    0.0000    0.7486    0.0000 C   0  0  0  0  0  0  0  0  0  0  0  0
    0.0000   -0.7486    0.0000 C   0  0  0  0  0  0  0  0  0  0  0  0
    1.2964   -1.4973    0.0000 O   0  0  0  0  0  0  0  0  0  0  0  0
    2.5929   -0.7486    0.0000 C   0  0  0  0  0  0  0  0  0  0  0  0
    2.5929    0.7486    0.0000 C   0  0  0  0  0  0  0  0  0  0  0  0
    1.2964    1.4973    0.0000 O   0  0  0  0  0  0  0  0  0  0  0  0
   -6.9856   -1.0607    0.0000 C   0  0  0  0  0  0  0  0  0  0  0  0
   -7.2275   -2.2360    0.0000 C   0  0  0  0  0  0  0  0  0  0  0  0
   12.5929    4.3317    0.0000 Cl  0  0  0  0  0  0  0  0  0  0  0  0
   10.0929    4.3317    0.0000 Cl  0  0  0  0  0  0  0  0  0  0  0  0
    7.5929    4.3317    0.0000 Cl  0  0  0  0  0  0  0  0  0  0  0  0
    5.0929    4.3317    0.0000 Cl  0  0  0  0  0  0  0  0  0  0  0  0
  9 10  2  0
  3  4  1  0
 10 11  1  0
 20 15  1  0
 15 21  2  0
 21 22  1  0
 22 19  1  0
  4  5  1  0
 22 23  1  0
 11 12  2  0
 21 24  1  0
 12  7  1  0
 19 25  1  0
  4  7  1  0
 17 26  1  0
  5  6  1  0
 26 27  1  0
  8 13  1  0
 27 28  1  0
 28  1  1  0
  1  2  1  0
 23 29  2  0
  9 14  1  0
 29 30  1  0
 30 33  2  0
 32 31  2  0
 31 23  1  0
 32 33  1  0
  7  8  2  0
 15 16  1  0
  1  6  1  0
 16 17  1  0
  8  9  1  0
 16 18  2  0
 32 37  1  0
 33 34  1  0
 34 35  1  0
 35 36  1  0
 36 37  1  0
 19 20  2  0
 25 38  1  0
  2  3  1  0
 38 39  1  0
M  END
>  <ACTIVITY>  (3) 
106

$$$$

     RDKit          2D

 35 36  0  0  0  0  0  0  0  0999 V2000
    1.2990   -0.7500    0.0000 N   0  0  0  0  0  0  0  0  0  0  0  0
    0.0000   -1.5000    0.0000 C   0  0  0  0  0  0  0  0  0  0  0  0
   -1.2990   -0.7500    0.0000 C   0  0  0  0  0  0  0  0  0  0  0  0
   -1.2990    0.7500    0.0000 N   0  0  0  0  0  0  0  0  0  0  0  0
    0.0000    1.5000    0.0000 C   0  0  0  0  0  0  0  0  0  0  0  0
    1.2990    0.7500    0.0000 C   0  0  0  0  0  0  0  0  0  0  0  0
   -2.5987    1.5004    0.0000 C   0  0  0  0  0  0  0  0  0  0  0  0
   -3.8967    0.7484    0.0000 C   0  0  0  0  0  0  0  0  0  0  0  0
   -5.1969    1.4963    0.0000 C   0  0  0  0  0  0  0  0  0  0  0  0
   -5.1993    2.9963    0.0000 C   0  0  0  0  0  0  0  0  0  0  0  0
   -3.9015    3.7484    0.0000 C   0  0  0  0  0  0  0  0  0  0  0  0
   -2.6012    3.0004    0.0000 C   0  0  0  0  0  0  0  0  0  0  0  0
    5.1873   -7.5117    0.0000 C   0  0  0  0  0  0  0  0  0  0  0  0
    5.1894   -6.0109    0.0000 C   0  0  0  0  0  0  0  0  0  0  0  0
    3.8912   -5.2578    0.0000 N   0  0  0  0  0  0  0  0  0  0  0  0
    6.2297   -5.4127    0.0000 O   0  0  0  0  0  0  0  0  0  0  0  0
    4.4293   -9.7955    0.0000 C   0  0  0  0  0  0  0  0  0  0  0  0
    3.9707   -8.3673    0.0000 N   0  0  0  0  0  0  0  0  0  0  0  0
    6.3978   -8.3758    0.0000 C   0  0  0  0  0  0  0  0  0  0  0  0
    5.9293   -9.8007    0.0000 N   0  0  0  0  0  0  0  0  0  0  0  0
    6.8072  -11.0179    0.0000 C   0  0  0  0  0  0  0  0  0  0  0  0
    7.5381   -8.0021    0.0000 C   0  0  0  0  0  0  0  0  0  0  0  0
    3.7206  -10.7639    0.0000 C   0  0  0  0  0  0  0  0  0  0  0  0
    3.8933   -3.7570    0.0000 C   0  0  0  0  0  0  0  0  0  0  0  0
    2.5951   -3.0039    0.0000 C   0  0  0  0  0  0  0  0  0  0  0  0
    2.5973   -1.5031    0.0000 C   0  0  0  0  0  0  0  0  0  0  0  0
    6.2979  -12.4235    0.0000 C   0  0  0  0  0  0  0  0  0  0  0  0
    7.2644  -13.5706    0.0000 C   0  0  0  0  0  0  0  0  0  0  0  0
    8.2847  -10.7495    0.0000 C   0  0  0  0  0  0  0  0  0  0  0  0
    9.2512  -11.8966    0.0000 C   0  0  0  0  0  0  0  0  0  0  0  0
    8.7411  -13.3071    0.0000 C   0  0  0  0  0  0  0  0  0  0  0  0
   -1.5630    3.6021    0.0000 C   0  0  0  0  0  0  0  0  0  0  0  0
   -3.9034    4.9484    0.0000 C   0  0  0  0  0  0  0  0  0  0  0  0
   14.2512   -4.1608    0.0000 Cl  0  0  0  0  0  0  0  0  0  0  0  0
   11.7512   -4.1608    0.0000 Cl  0  0  0  0  0  0  0  0  0  0  0  0
 17 18  2  0
  1  6  1  0
  8  9  2  0
  2  3  1  0
  9 10  1  0
 18 13  1  0
 13 19  2  0
 19 20  1  0
 20 17  1  0
  3  4  1  0
 20 21  1  0
 10 11  2  0
 19 22  1  0
  4  5  1  0
 17 23  1  0
 11 12  1  0
 15 24  1  0
 12  7  2  0
 24 25  1  0
  4  7  1  0
 25 26  1  0
 26  1  1  0
  5  6  1  0
 21 27  2  0
  1  2  1  0
 27 28  1  0
 28 31  2  0
 13 14  1  0
 30 29  2  0
 29 21  1  0
 30 31  1  0
 14 15  1  0
  7  8  1  0
 12 32  1  0
 14 16  2  0
 11 33  1  0
M  END
>  <ACTIVITY>  (4) 
91

$$$$

     RDKit          2D

 38 38  0  0  0  0  0  0  0  0999 V2000
    5.1945   -3.0045    0.0000 N   0  0  0  0  0  0  0  0  0  0  0  0
    5.1969   -1.5045    0.0000 C   0  0  0  0  0  0  0  0  0  0  0  0
    3.8991   -0.7525    0.0000 C   0  0  0  0  0  0  0  0  0  0  0  0
    2.5987   -1.5004    0.0000 N   0  0  0  0  0  0  0  0  0  0  0  0
    2.5965   -3.0004    0.0000 C   0  0  0  0  0  0  0  0  0  0  0  0
    3.8943   -3.7525    0.0000 C   0  0  0  0  0  0  0  0  0  0  0  0
    1.2990   -0.7500    0.0000 C   0  0  0  0  0  0  0  0  0  0  0  0
    0.0000   -1.5000    0.0000 C   0  0  0  0  0  0  0  0  0  0  0  0
   -1.2990   -0.7500    0.0000 C   0  0  0  0  0  0  0  0  0  0  0  0
   -1.2990    0.7500    0.0000 C   0  0  0  0  0  0  0  0  0  0  0  0
    0.0000    1.5000    0.0000 C   0  0  0  0  0  0  0  0  0  0  0  0
    1.2990    0.7500    0.0000 C   0  0  0  0  0  0  0  0  0  0  0  0
    9.0720   -9.7724    0.0000 C   0  0  0  0  0  0  0  0  0  0  0  0
    9.0765   -8.2716    0.0000 C   0  0  0  0  0  0  0  0  0  0  0  0
    7.7795   -7.5165    0.0000 N   0  0  0  0  0  0  0  0  0  0  0  0
   10.1178   -7.6751    0.0000 O   0  0  0  0  0  0  0  0  0  0  0  0
    8.3104  -12.0550    0.0000 C   0  0  0  0  0  0  0  0  0  0  0  0
    7.8541  -10.6261    0.0000 N   0  0  0  0  0  0  0  0  0  0  0  0
   10.2812  -10.6384    0.0000 C   0  0  0  0  0  0  0  0  0  0  0  0
    9.8104  -12.0626    0.0000 N   0  0  0  0  0  0  0  0  0  0  0  0
   10.6864  -13.2812    0.0000 C   0  0  0  0  0  0  0  0  0  0  0  0
   11.4221  -10.2666    0.0000 C   0  0  0  0  0  0  0  0  0  0  0  0
    7.4212  -13.2608    0.0000 C   0  0  0  0  0  0  0  0  0  0  0  0
    7.7840   -6.0157    0.0000 C   0  0  0  0  0  0  0  0  0  0  0  0
    6.4870   -5.2605    0.0000 C   0  0  0  0  0  0  0  0  0  0  0  0
    6.4915   -3.7597    0.0000 C   0  0  0  0  0  0  0  0  0  0  0  0
   10.1748  -14.6860    0.0000 C   0  0  0  0  0  0  0  0  0  0  0  0
   11.1395  -15.8346    0.0000 C   0  0  0  0  0  0  0  0  0  0  0  0
   12.1643  -13.0151    0.0000 C   0  0  0  0  0  0  0  0  0  0  0  0
   13.1290  -14.1637    0.0000 C   0  0  0  0  0  0  0  0  0  0  0  0
   12.6166  -15.5735    0.0000 C   0  0  0  0  0  0  0  0  0  0  0  0
    2.3383    1.3500    0.0000 C   0  0  0  0  0  0  0  0  0  0  0  0
    0.0000    2.7000    0.0000 Cl  0  0  0  0  0  0  0  0  0  0  0  0
    5.9296  -13.0942    0.0000 C   0  0  0  0  0  0  0  0  0  0  0  0
    5.2174  -14.0600    0.0000 C   0  0  0  0  0  0  0  0  0  0  0  0
   20.6290   -6.4169    0.0000 Cl  0  0  0  0  0  0  0  0  0  0  0  0
   18.1290   -6.4169    0.0000 Cl  0  0  0  0  0  0  0  0  0  0  0  0
   15.6290   -6.4169    0.0000 Cl  0  0  0  0  0  0  0  0  0  0  0  0
  8  9  2  0
  2  3  1  0
  9 10  1  0
 18 13  1  0
 13 19  2  0
 19 20  1  0
 20 17  1  0
  3  4  1  0
 20 21  1  0
 10 11  2  0
 19 22  1  0
  4  5  1  0
 17 23  1  0
 11 12  1  0
 15 24  1  0
 12  7  2  0
 24 25  1  0
  4  7  1  0
 25 26  1  0
 26  1  1  0
  5  6  1  0
 21 27  2  0
  1  2  1  0
 27 28  1  0
 28 31  2  0
 13 14  1  0
 30 29  2  0
 29 21  1  0
 30 31  1  0
 14 15  1  0
  7  8  1  0
 12 32  1  0
 14 16  2  0
 11 33  1  0
 17 18  2  0
 23 34  1  0
  1  6  1  0
 34 35  1  0
M  END
>  <ACTIVITY>  (5) 
154

$$$$

     RDKit          2D

 37 38  0  0  0  0  0  0  0  0999 V2000
    5.1945   -3.0045    0.0000 N   0  0  0  0  0  0  0  0  0  0  0  0
    5.1969   -1.5045    0.0000 C   0  0  0  0  0  0  0  0  0  0  0  0
    3.8991   -0.7525    0.0000 C   0  0  0  0  0  0  0  0  0  0  0  0
    2.5987   -1.5004    0.0000 N   0  0  0  0  0  0  0  0  0  0  0  0
    2.5965   -3.0004    0.0000 C   0  0  0  0  0  0  0  0  0  0  0  0
    3.8943   -3.7525    0.0000 C   0  0  0  0  0  0  0  0  0  0  0  0
    1.2990   -0.7500    0.0000 C   0  0  0  0  0  0  0  0  0  0  0  0
    0.0000   -1.5000    0.0000 C   0  0  0  0  0  0  0  0  0  0  0  0
   -1.2990   -0.7500    0.0000 C   0  0  0  0  0  0  0  0  0  0  0  0
   -1.2990    0.7500    0.0000 C   0  0  0  0  0  0  0  0  0  0  0  0
    0.0000    1.5000    0.0000 C   0  0  0  0  0  0  0  0  0  0  0  0
    1.2990    0.7500    0.0000 C   0  0  0  0  0  0  0  0  0  0  0  0
    9.0720   -9.7724    0.0000 C   0  0  0  0  0  0  0  0  0  0  0  0
    9.0765   -8.2716    0.0000 C   0  0  0  0  0  0  0  0  0  0  0  0
    7.7795   -7.5165    0.0000 N   0  0  0  0  0  0  0  0  0  0  0  0
   10.1178   -7.6751    0.0000 O   0  0  0  0  0  0  0  0  0  0  0  0
    8.3104  -12.0550    0.0000 C   0  0  0  0  0  0  0  0  0  0  0  0
    7.8541  -10.6261    0.0000 N   0  0  0  0  0  0  0  0  0  0  0  0
   10.2812  -10.6384    0.0000 C   0  0  0  0  0  0  0  0  0  0  0  0
    9.8104  -12.0626    0.0000 N   0  0  0  0  0  0  0  0  0  0  0  0
   10.6864  -13.2812    0.0000 C   0  0  0  0  0  0  0  0  0  0  0  0
   11.4221  -10.2666    0.0000 C   0  0  0  0  0  0  0  0  0  0  0  0
    7.4212  -13.2608    0.0000 C   0  0  0  0  0  0  0  0  0  0  0  0
    7.7840   -6.0157    0.0000 C   0  0  0  0  0  0  0  0  0  0  0  0
    6.4870   -5.2605    0.0000 C   0  0  0  0  0  0  0  0  0  0  0  0
    6.4915   -3.7597    0.0000 C   0  0  0  0  0  0  0  0  0  0  0  0
   10.1748  -14.6860    0.0000 C   0  0  0  0  0  0  0  0  0  0  0  0
   11.1395  -15.8346    0.0000 C   0  0  0  0  0  0  0  0  0  0  0  0
   12.1643  -13.0151    0.0000 C   0  0  0  0  0  0  0  0  0  0  0  0
   13.1290  -14.1637    0.0000 C   0  0  0  0  0  0  0  0  0  0  0  0
   12.6166  -15.5735    0.0000 C   0  0  0  0  0  0  0  0  0  0  0  0
    2.3383    1.3500    0.0000 C   0  0  0  0  0  0  0  0  0  0  0  0
    5.9296  -13.0942    0.0000 C   0  0  0  0  0  0  0  0  0  0  0  0
    5.2174  -14.0600    0.0000 C   0  0  0  0  0  0  0  0  0  0  0  0
    0.0000    2.7000    0.0000 C   0  0  0  0  0  0  0  0  0  0  0  0
   18.1290   -6.4169    0.0000 Cl  0  0  0  0  0  0  0  0  0  0  0  0
   15.6290   -6.4169    0.0000 Cl  0  0  0  0  0  0  0  0  0  0  0  0
  8  9  2  0
  2  3  1  0
  9 10  1  0
 18 13  1  0
 13 19  2  0
 19 20  1  0
 20 17  1  0
  3  4  1  0
 20 21  1  0
 10 11  2  0
 19 22  1  0
  4  5  1  0
 17 23  1  0
 11 12  1  0
 15 24  1  0
 12  7  2  0
 24 25  1  0
  4  7  1  0
 25 26  1  0
 26  1  1  0
  5  6  1  0
 21 27  2  0
  1  2  1  0
 27 28  1  0
 28 31  2  0
 13 14  1  0
 30 29  2  0
 29 21  1  0
 30 31  1  0
 14 15  1  0
  7  8  1  0
 12 32  1  0
 14 16  2  0
 23 33  1  0
 17 18  2  0
 33 34  1  0
  1  6  1  0
 11 35  1  0
M  END
>  <ACTIVITY>  (6) 
75

$$$$

     RDKit          2D

 37 38  0  0  0  0  0  0  0  0999 V2000
    5.1945   -3.0045    0.0000 N   0  0  0  0  0  0  0  0  0  0  0  0
    5.1969   -1.5045    0.0000 C   0  0  0  0  0  0  0  0  0  0  0  0
    3.8991   -0.7525    0.0000 C   0  0  0  0  0  0  0  0  0  0  0  0
    2.5987   -1.5004    0.0000 N   0  0  0  0  0  0  0  0  0  0  0  0
    2.5965   -3.0004    0.0000 C   0  0  0  0  0  0  0  0  0  0  0  0
    3.8943   -3.7525    0.0000 C   0  0  0  0  0  0  0  0  0  0  0  0
    1.2990   -0.7500    0.0000 C   0  0  0  0  0  0  0  0  0  0  0  0
    0.0000   -1.5000    0.0000 C   0  0  0  0  0  0  0  0  0  0  0  0
   -1.2990   -0.7500    0.0000 C   0  0  0  0  0  0  0  0  0  0  0  0
   -1.2990    0.7500    0.0000 C   0  0  0  0  0  0  0  0  0  0  0  0
    0.0000    1.5000    0.0000 C   0  0  0  0  0  0  0  0  0  0  0  0
    1.2990    0.7500    0.0000 C   0  0  0  0  0  0  0  0  0  0  0  0
    9.0720   -9.7724    0.0000 C   0  0  0  0  0  0  0  0  0  0  0  0
    9.0765   -8.2716    0.0000 C   0  0  0  0  0  0  0  0  0  0  0  0
    7.7795   -7.5165    0.0000 N   0  0  0  0  0  0  0  0  0  0  0  0
   10.1178   -7.6751    0.0000 O   0  0  0  0  0  0  0  0  0  0  0  0
    8.3104  -12.0550    0.0000 C   0  0  0  0  0  0  0  0  0  0  0  0
    7.8541  -10.6261    0.0000 N   0  0  0  0  0  0  0  0  0  0  0  0
   10.2812  -10.6384    0.0000 C   0  0  0  0  0  0  0  0  0  0  0  0
    9.8104  -12.0626    0.0000 N   0  0  0  0  0  0  0  0  0  0  0  0
   10.6864  -13.2812    0.0000 C   0  0  0  0  0  0  0  0  0  0  0  0
   11.4221  -10.2666    0.0000 C   0  0  0  0  0  0  0  0  0  0  0  0
    7.4212  -13.2608    0.0000 C   0  0  0  0  0  0  0  0  0  0  0  0
    7.7840   -6.0157    0.0000 C   0  0  0  0  0  0  0  0  0  0  0  0
    6.4870   -5.2605    0.0000 C   0  0  0  0  0  0  0  0  0  0  0  0
    6.4915   -3.7597    0.0000 C   0  0  0  0  0  0  0  0  0  0  0  0
   10.1748  -14.6860    0.0000 C   0  0  0  0  0  0  0  0  0  0  0  0
   11.1395  -15.8346    0.0000 C   0  0  0  0  0  0  0  0  0  0  0  0
   12.1643  -13.0151    0.0000 C   0  0  0  0  0  0  0  0  0  0  0  0
   13.1290  -14.1637    0.0000 C   0  0  0  0  0  0  0  0  0  0  0  0
   12.6166  -15.5735    0.0000 C   0  0  0  0  0  0  0  0  0  0  0  0
    2.3383    1.3500    0.0000 C   0  0  0  0  0  0  0  0  0  0  0  0
    0.0000    2.7000    0.0000 C   0  0  0  0  0  0  0  0  0  0  0  0
    6.2286  -13.1276    0.0000 C   0  0  0  0  0  0  0  0  0  0  0  0
    7.9018  -14.3604    0.0000 C   0  0  0  0  0  0  0  0  0  0  0  0
   18.1290   -6.4169    0.0000 Cl  0  0  0  0  0  0  0  0  0  0  0  0
   15.6290   -6.4169    0.0000 Cl  0  0  0  0  0  0  0  0  0  0  0  0
  8  9  2  0
  2  3  1  0
  9 10  1  0
 18 13  1  0
 13 19  2  0
 19 20  1  0
 20 17  1  0
  3  4  1  0
 20 21  1  0
 10 11  2  0
 19 22  1  0
  4  5  1  0
 17 23  1  0
 11 12  1  0
 15 24  1  0
 12  7  2  0
 24 25  1  0
  4  7  1  0
 25 26  1  0
 26  1  1  0
  5  6  1  0
 21 27  2  0
  1  2  1  0
 27 28  1  0
 28 31  2  0
 13 14  1  0
 30 29  2  0
 29 21  1  0
 30 31  1  0
 14 15  1  0
  7  8  1  0
 12 32  1  0
 14 16  2  0
 11 33  1  0
 17 18  2  0
 23 34  1  0
  1  6  1  0
 23 35  1  0
M  END
>  <ACTIVITY>  (7) 
105

$$$$

     RDKit          2D

 36 37  0  0  0  0  0  0  0  0999 V2000
    1.2990   -0.7500    0.0000 N   0  0  0  0  0  0  0  0  0  0  0  0
    0.0000   -1.5000    0.0000 C   0  0  0  0  0  0  0  0  0  0  0  0
   -1.2990   -0.7500    0.0000 C   0  0  0  0  0  0  0  0  0  0  0  0
   -1.2990    0.7500    0.0000 N   0  0  0  0  0  0  0  0  0  0  0  0
    0.0000    1.5000    0.0000 C   0  0  0  0  0  0  0  0  0  0  0  0
    1.2990    0.7500    0.0000 C   0  0  0  0  0  0  0  0  0  0  0  0
   -2.5987    1.5004    0.0000 C   0  0  0  0  0  0  0  0  0  0  0  0
   -3.8967    0.7484    0.0000 C   0  0  0  0  0  0  0  0  0  0  0  0
   -5.1969    1.4963    0.0000 C   0  0  0  0  0  0  0  0  0  0  0  0
   -5.1993    2.9963    0.0000 C   0  0  0  0  0  0  0  0  0  0  0  0
   -3.9015    3.7484    0.0000 C   0  0  0  0  0  0  0  0  0  0  0  0
   -2.6012    3.0004    0.0000 C   0  0  0  0  0  0  0  0  0  0  0  0
    5.1873   -7.5117    0.0000 C   0  0  0  0  0  0  0  0  0  0  0  0
    5.1894   -6.0109    0.0000 C   0  0  0  0  0  0  0  0  0  0  0  0
    3.8912   -5.2578    0.0000 N   0  0  0  0  0  0  0  0  0  0  0  0
    6.2297   -5.4127    0.0000 O   0  0  0  0  0  0  0  0  0  0  0  0
    5.9293   -9.8007    0.0000 C   0  0  0  0  0  0  0  0  0  0  0  0
    6.3978   -8.3758    0.0000 N   0  0  0  0  0  0  0  0  0  0  0  0
    3.9707   -8.3673    0.0000 C   0  0  0  0  0  0  0  0  0  0  0  0
    4.4293   -9.7955    0.0000 N   0  0  0  0  0  0  0  0  0  0  0  0
    3.5430  -11.0066    0.0000 C   0  0  0  0  0  0  0  0  0  0  0  0
    6.8083  -11.0141    0.0000 C   0  0  0  0  0  0  0  0  0  0  0  0
    3.8933   -3.7570    0.0000 C   0  0  0  0  0  0  0  0  0  0  0  0
    2.5951   -3.0039    0.0000 C   0  0  0  0  0  0  0  0  0  0  0  0
    2.5973   -1.5031    0.0000 C   0  0  0  0  0  0  0  0  0  0  0  0
    4.0425  -12.4157    0.0000 C   0  0  0  0  0  0  0  0  0  0  0  0
    3.0681  -13.5560    0.0000 C   0  0  0  0  0  0  0  0  0  0  0  0
    2.0673  -10.7279    0.0000 C   0  0  0  0  0  0  0  0  0  0  0  0
    1.0929  -11.8682    0.0000 C   0  0  0  0  0  0  0  0  0  0  0  0
    1.5932  -13.2823    0.0000 C   0  0  0  0  0  0  0  0  0  0  0  0
   -1.5630    3.6021    0.0000 C   0  0  0  0  0  0  0  0  0  0  0  0
    8.3012  -10.8602    0.0000 C   0  0  0  0  0  0  0  0  0  0  0  0
    9.0052  -11.8320    0.0000 C   0  0  0  0  0  0  0  0  0  0  0  0
   -3.9034    4.9484    0.0000 C   0  0  0  0  0  0  0  0  0  0  0  0
   14.1816   -4.1535    0.0000 Cl  0  0  0  0  0  0  0  0  0  0  0  0
   11.6816   -4.1535    0.0000 Cl  0  0  0  0  0  0  0  0  0  0  0  0
  1  6  1  0
  8  9  2  0
  2  3  1  0
  9 10  1  0
 18 13  1  0
 13 19  2  0
 19 20  1  0
 20 17  1  0
  3  4  1  0
 20 21  1  0
 10 11  2  0
 17 22  1  0
  4  5  1  0
 15 23  1  0
 11 12  1  0
 23 24  1  0
 12  7  2  0
 24 25  1  0
 25  1  1  0
  4  7  1  0
 21 26  2  0
  5  6  1  0
 26 27  1  0
 27 30  2  0
  1  2  1  0
 29 28  2  0
 28 21  1  0
 29 30  1  0
 13 14  1  0
 14 15  1  0
 12 31  1  0
  7  8  1  0
 22 32  1  0
 14 16  2  0
 32 33  1  0
 17 18  2  0
 11 34  1  0
M  END
>  <ACTIVITY>  (8) 
133

$$$$

     RDKit          2D

 34 33  0  0  0  0  0  0  0  0999 V2000
    1.2990   -0.7500    0.0000 N   0  0  0  0  0  0  0  0  0  0  0  0
    0.0000   -1.5000    0.0000 C   0  0  0  0  0  0  0  0  0  0  0  0
   -1.2990   -0.7500    0.0000 C   0  0  0  0  0  0  0  0  0  0  0  0
   -1.2990    0.7500    0.0000 N   0  0  0  0  0  0  0  0  0  0  0  0
    0.0000    1.5000    0.0000 C   0  0  0  0  0  0  0  0  0  0  0  0
    1.2990    0.7500    0.0000 C   0  0  0  0  0  0  0  0  0  0  0  0
   -2.5987    1.5004    0.0000 C   0  0  0  0  0  0  0  0  0  0  0  0
   -3.8967    0.7484    0.0000 C   0  0  0  0  0  0  0  0  0  0  0  0
   -5.1969    1.4963    0.0000 C   0  0  0  0  0  0  0  0  0  0  0  0
   -5.1993    2.9963    0.0000 C   0  0  0  0  0  0  0  0  0  0  0  0
   -3.9015    3.7484    0.0000 C   0  0  0  0  0  0  0  0  0  0  0  0
   -2.6012    3.0004    0.0000 C   0  0  0  0  0  0  0  0  0  0  0  0
    5.1873   -7.5117    0.0000 C   0  0  0  0  0  0  0  0  0  0  0  0
    5.1894   -6.0109    0.0000 C   0  0  0  0  0  0  0  0  0  0  0  0
    3.8912   -5.2578    0.0000 N   0  0  0  0  0  0  0  0  0  0  0  0
    6.2297   -5.4127    0.0000 O   0  0  0  0  0  0  0  0  0  0  0  0
    4.4293   -9.7955    0.0000 C   0  0  0  0  0  0  0  0  0  0  0  0
    3.9707   -8.3673    0.0000 N   0  0  0  0  0  0  0  0  0  0  0  0
    6.3978   -8.3758    0.0000 C   0  0  0  0  0  0  0  0  0  0  0  0
    5.9293   -9.8007    0.0000 N   0  0  0  0  0  0  0  0  0  0  0  0
    6.8032  -11.0177    0.0000 C   0  0  0  0  0  0  0  0  0  0  0  0
    3.7206  -10.7639    0.0000 C   0  0  0  0  0  0  0  0  0  0  0  0
    3.8933   -3.7570    0.0000 C   0  0  0  0  0  0  0  0  0  0  0  0
    2.5951   -3.0039    0.0000 C   0  0  0  0  0  0  0  0  0  0  0  0
    2.5973   -1.5031    0.0000 C   0  0  0  0  0  0  0  0  0  0  0  0
    6.1860  -12.3858    0.0000 C   0  0  0  0  0  0  0  0  0  0  0  0
    6.8860  -13.3605    0.0000 C   0  0  0  0  0  0  0  0  0  0  0  0
   -1.5630    3.6021    0.0000 C   0  0  0  0  0  0  0  0  0  0  0  0
   -3.9034    4.9484    0.0000 Cl  0  0  0  0  0  0  0  0  0  0  0  0
    4.9920  -12.5049    0.0000 C   0  0  0  0  0  0  0  0  0  0  0  0
    7.5381   -8.0021    0.0000 C   0  0  0  0  0  0  0  0  0  0  0  0
   15.3239   -4.1779    0.0000 Cl  0  0  0  0  0  0  0  0  0  0  0  0
   12.8239   -4.1779    0.0000 Cl  0  0  0  0  0  0  0  0  0  0  0  0
   10.3239   -4.1779    0.0000 Cl  0  0  0  0  0  0  0  0  0  0  0  0
 17 18  2  0
  1  6  1  0
  8  9  2  0
  2  3  1  0
  9 10  1  0
 18 13  1  0
 13 19  2  0
 19 20  1  0
 20 17  1  0
  3  4  1  0
 20 21  1  0
 10 11  2  0
 17 22  1  0
  4  5  1  0
 15 23  1  0
 11 12  1  0
 23 24  1  0
 12  7  2  0
 24 25  1  0
 25  1  1  0
  4  7  1  0
 21 26  1  0
  5  6  1  0
 26 27  1  0
  1  2  1  0
 12 28  1  0
 13 14  1  0
 14 15  1  0
 11 29  1  0
  7  8  1  0
 26 30  1  0
 14 16  2  0
 19 31  1  0
M  END
>  <ACTIVITY>  (9) 
45.5

$$$$

     RDKit          2D

 33 33  0  0  0  0  0  0  0  0999 V2000
    1.2990   -0.7500    0.0000 N   0  0  0  0  0  0  0  0  0  0  0  0
    0.0000   -1.5000    0.0000 C   0  0  0  0  0  0  0  0  0  0  0  0
   -1.2990   -0.7500    0.0000 C   0  0  0  0  0  0  0  0  0  0  0  0
   -1.2990    0.7500    0.0000 N   0  0  0  0  0  0  0  0  0  0  0  0
    0.0000    1.5000    0.0000 C   0  0  0  0  0  0  0  0  0  0  0  0
    1.2990    0.7500    0.0000 C   0  0  0  0  0  0  0  0  0  0  0  0
   -2.5987    1.5004    0.0000 C   0  0  0  0  0  0  0  0  0  0  0  0
   -3.8967    0.7484    0.0000 C   0  0  0  0  0  0  0  0  0  0  0  0
   -5.1969    1.4963    0.0000 C   0  0  0  0  0  0  0  0  0  0  0  0
   -5.1993    2.9963    0.0000 C   0  0  0  0  0  0  0  0  0  0  0  0
   -3.9015    3.7484    0.0000 C   0  0  0  0  0  0  0  0  0  0  0  0
   -2.6012    3.0004    0.0000 C   0  0  0  0  0  0  0  0  0  0  0  0
    5.1873   -7.5117    0.0000 C   0  0  0  0  0  0  0  0  0  0  0  0
    5.1894   -6.0109    0.0000 C   0  0  0  0  0  0  0  0  0  0  0  0
    3.8912   -5.2578    0.0000 N   0  0  0  0  0  0  0  0  0  0  0  0
    6.2297   -5.4127    0.0000 O   0  0  0  0  0  0  0  0  0  0  0  0
    4.4293   -9.7955    0.0000 C   0  0  0  0  0  0  0  0  0  0  0  0
    3.9707   -8.3673    0.0000 N   0  0  0  0  0  0  0  0  0  0  0  0
    6.3978   -8.3758    0.0000 C   0  0  0  0  0  0  0  0  0  0  0  0
    5.9293   -9.8007    0.0000 N   0  0  0  0  0  0  0  0  0  0  0  0
    6.8032  -11.0177    0.0000 C   0  0  0  0  0  0  0  0  0  0  0  0
    3.7206  -10.7639    0.0000 C   0  0  0  0  0  0  0  0  0  0  0  0
    3.8933   -3.7570    0.0000 C   0  0  0  0  0  0  0  0  0  0  0  0
    2.5951   -3.0039    0.0000 C   0  0  0  0  0  0  0  0  0  0  0  0
    2.5973   -1.5031    0.0000 C   0  0  0  0  0  0  0  0  0  0  0  0
    6.1860  -12.3858    0.0000 C   0  0  0  0  0  0  0  0  0  0  0  0
    6.8860  -13.3605    0.0000 C   0  0  0  0  0  0  0  0  0  0  0  0
   -1.5630    3.6021    0.0000 C   0  0  0  0  0  0  0  0  0  0  0  0
   -3.9034    4.9484    0.0000 C   0  0  0  0  0  0  0  0  0  0  0  0
    4.9920  -12.5049    0.0000 C   0  0  0  0  0  0  0  0  0  0  0  0
    7.5381   -8.0021    0.0000 C   0  0  0  0  0  0  0  0  0  0  0  0
   12.8239   -4.1779    0.0000 Cl  0  0  0  0  0  0  0  0  0  0  0  0
   10.3239   -4.1779    0.0000 Cl  0  0  0  0  0  0  0  0  0  0  0  0
 17 18  2  0
  1  6  1  0
  8  9  2  0
  2  3  1  0
  9 10  1  0
 18 13  1  0
 13 19  2  0
 19 20  1  0
 20 17  1  0
  3  4  1  0
 20 21  1  0
 10 11  2  0
 17 22  1  0
  4  5  1  0
 15 23  1  0
 11 12  1  0
 23 24  1  0
 12  7  2  0
 24 25  1  0
 25  1  1  0
  4  7  1  0
 21 26  1  0
  5  6  1  0
 26 27  1  0
  1  2  1  0
 12 28  1  0
 13 14  1  0
 14 15  1  0
 11 29  1  0
  7  8  1  0
 26 30  1  0
 14 16  2  0
 19 31  1  0
M  END
>  <ACTIVITY>  (10) 
216.8

$$$$

     RDKit          2D

 35 35  0  0  0  0  0  0  0  0999 V2000
    1.2990   -0.7500    0.0000 N   0  0  0  0  0  0  0  0  0  0  0  0
    0.0000   -1.5000    0.0000 C   0  0  0  0  0  0  0  0  0  0  0  0
   -1.2990   -0.7500    0.0000 C   0  0  0  0  0  0  0  0  0  0  0  0
   -1.2990    0.7500    0.0000 N   0  0  0  0  0  0  0  0  0  0  0  0
    0.0000    1.5000    0.0000 C   0  0  0  0  0  0  0  0  0  0  0  0
    1.2990    0.7500    0.0000 C   0  0  0  0  0  0  0  0  0  0  0  0
   -2.5987    1.5004    0.0000 C   0  0  0  0  0  0  0  0  0  0  0  0
   -3.8967    0.7484    0.0000 C   0  0  0  0  0  0  0  0  0  0  0  0
   -5.1969    1.4963    0.0000 C   0  0  0  0  0  0  0  0  0  0  0  0
   -5.1993    2.9963    0.0000 C   0  0  0  0  0  0  0  0  0  0  0  0
   -3.9015    3.7484    0.0000 C   0  0  0  0  0  0  0  0  0  0  0  0
   -2.6012    3.0004    0.0000 C   0  0  0  0  0  0  0  0  0  0  0  0
    5.1873   -7.5117    0.0000 C   0  0  0  0  0  0  0  0  0  0  0  0
    5.1894   -6.0109    0.0000 C   0  0  0  0  0  0  0  0  0  0  0  0
    3.8912   -5.2578    0.0000 N   0  0  0  0  0  0  0  0  0  0  0  0
    6.2297   -5.4127    0.0000 O   0  0  0  0  0  0  0  0  0  0  0  0
    4.4293   -9.7955    0.0000 C   0  0  0  0  0  0  0  0  0  0  0  0
    3.9707   -8.3673    0.0000 N   0  0  0  0  0  0  0  0  0  0  0  0
    6.3978   -8.3758    0.0000 C   0  0  0  0  0  0  0  0  0  0  0  0
    5.9293   -9.8007    0.0000 N   0  0  0  0  0  0  0  0  0  0  0  0
    3.7206  -10.7639    0.0000 C   0  0  0  0  0  0  0  0  0  0  0  0
    3.8933   -3.7570    0.0000 C   0  0  0  0  0  0  0  0  0  0  0  0
    2.5951   -3.0039    0.0000 C   0  0  0  0  0  0  0  0  0  0  0  0
    2.5973   -1.5031    0.0000 C   0  0  0  0  0  0  0  0  0  0  0  0
   -1.5630    3.6021    0.0000 C   0  0  0  0  0  0  0  0  0  0  0  0
   -3.9034    4.9484    0.0000 Cl  0  0  0  0  0  0  0  0  0  0  0  0
    6.8072  -11.0179    0.0000 C   0  0  0  0  0  0  0  0  0  0  0  0
    6.4380  -12.4537    0.0000 C   0  0  0  0  0  0  0  0  0  0  0  0
    7.7140  -13.2422    0.0000 C   0  0  0  0  0  0  0  0  0  0  0  0
    8.8583  -12.2722    0.0000 C   0  0  0  0  0  0  0  0  0  0  0  0
    8.2894  -10.8843    0.0000 C   0  0  0  0  0  0  0  0  0  0  0  0
    7.5381   -8.0021    0.0000 C   0  0  0  0  0  0  0  0  0  0  0  0
   16.3583   -3.9965    0.0000 Cl  0  0  0  0  0  0  0  0  0  0  0  0
   13.8583   -3.9965    0.0000 Cl  0  0  0  0  0  0  0  0  0  0  0  0
   11.3583   -3.9965    0.0000 Cl  0  0  0  0  0  0  0  0  0  0  0  0
  1  6  1  0
  8  9  2  0
  2  3  1  0
  9 10  1  0
 18 13  1  0
 13 19  2  0
 19 20  1  0
 20 17  1  0
  3  4  1  0
 17 21  1  0
 10 11  2  0
 15 22  1  0
  4  5  1  0
 22 23  1  0
 11 12  1  0
 23 24  1  0
 24  1  1  0
 12  7  2  0
 12 25  1  0
  4  7  1  0
  5  6  1  0
  1  2  1  0
 11 26  1  0
 27 28  1  0
 13 14  1  0
 14 15  1  0
  7  8  1  0
 14 16  2  0
 28 29  1  0
 29 30  1  0
 30 31  1  0
 31 27  1  0
 20 27  1  0
 17 18  2  0
 19 32  1  0
M  END
>  <ACTIVITY>  (11) 
80.6

$$$$

     RDKit          2D

 40 42  0  0  0  0  0  0  0  0999 V2000
    1.2990   -0.7500    0.0000 N   0  0  0  0  0  0  0  0  0  0  0  0
    1.2990    0.7500    0.0000 C   0  0  0  0  0  0  0  0  0  0  0  0
    0.0000    1.5000    0.0000 C   0  0  0  0  0  0  0  0  0  0  0  0
   -1.2990    0.7500    0.0000 N   0  0  0  0  0  0  0  0  0  0  0  0
   -1.2990   -0.7500    0.0000 C   0  0  0  0  0  0  0  0  0  0  0  0
    0.0000   -1.5000    0.0000 C   0  0  0  0  0  0  0  0  0  0  0  0
   -2.5987    1.5004    0.0000 C   0  0  0  0  0  0  0  0  0  0  0  0
   -3.8967    0.7484    0.0000 C   0  0  0  0  0  0  0  0  0  0  0  0
   -5.1969    1.4963    0.0000 C   0  0  0  0  0  0  0  0  0  0  0  0
   -5.1993    2.9963    0.0000 C   0  0  0  0  0  0  0  0  0  0  0  0
   -3.9015    3.7484    0.0000 C   0  0  0  0  0  0  0  0  0  0  0  0
   -2.6012    3.0004    0.0000 C   0  0  0  0  0  0  0  0  0  0  0  0
    5.1873   -7.5117    0.0000 C   0  0  0  0  0  0  0  0  0  0  0  0
    5.1894   -6.0109    0.0000 C   0  0  0  0  0  0  0  0  0  0  0  0
    3.8912   -5.2578    0.0000 N   0  0  0  0  0  0  0  0  0  0  0  0
    6.2297   -5.4127    0.0000 O   0  0  0  0  0  0  0  0  0  0  0  0
    4.4293   -9.7955    0.0000 C   0  0  0  0  0  0  0  0  0  0  0  0
    3.9707   -8.3673    0.0000 N   0  0  0  0  0  0  0  0  0  0  0  0
    6.3978   -8.3758    0.0000 C   0  0  0  0  0  0  0  0  0  0  0  0
    5.9293   -9.8007    0.0000 N   0  0  0  0  0  0  0  0  0  0  0  0
    6.8072  -11.0179    0.0000 C   0  0  0  0  0  0  0  0  0  0  0  0
    3.5430  -11.0066    0.0000 C   0  0  0  0  0  0  0  0  0  0  0  0
    3.8933   -3.7570    0.0000 C   0  0  0  0  0  0  0  0  0  0  0  0
    2.5951   -3.0039    0.0000 C   0  0  0  0  0  0  0  0  0  0  0  0
    2.5973   -1.5031    0.0000 C   0  0  0  0  0  0  0  0  0  0  0  0
    6.2979  -12.4235    0.0000 C   0  0  0  0  0  0  0  0  0  0  0  0
    7.2644  -13.5706    0.0000 C   0  0  0  0  0  0  0  0  0  0  0  0
    8.2847  -10.7495    0.0000 C   0  0  0  0  0  0  0  0  0  0  0  0
    9.2512  -11.8966    0.0000 C   0  0  0  0  0  0  0  0  0  0  0  0
    8.7411  -13.3071    0.0000 C   0  0  0  0  0  0  0  0  0  0  0  0
   -1.5630    3.6021    0.0000 C   0  0  0  0  0  0  0  0  0  0  0  0
   -3.9034    4.9484    0.0000 C   0  0  0  0  0  0  0  0  0  0  0  0
    2.0488  -10.9565    0.0000 C   0  0  0  0  0  0  0  0  0  0  0  0
    1.2565  -12.2302    0.0000 C   0  0  0  0  0  0  0  0  0  0  0  0
    1.9634  -13.5532    0.0000 C   0  0  0  0  0  0  0  0  0  0  0  0
    3.4626  -13.6025    0.0000 C   0  0  0  0  0  0  0  0  0  0  0  0
    4.2549  -12.3288    0.0000 C   0  0  0  0  0  0  0  0  0  0  0  0
    7.5381   -8.0021    0.0000 C   0  0  0  0  0  0  0  0  0  0  0  0
   14.2512   -4.1767    0.0000 Cl  0  0  0  0  0  0  0  0  0  0  0  0
   11.7512   -4.1767    0.0000 Cl  0  0  0  0  0  0  0  0  0  0  0  0
 18 13  1  0
 13 19  2  0
 19 20  1  0
 20 17  1  0
  3  4  1  0
 20 21  1  0
 10 11  1  0
 17 22  1  0
  4  5  1  0
 15 23  1  0
 11 12  2  0
 23 24  1  0
 12  7  1  0
 24 25  1  0
 25  1  1  0
  4  7  1  0
 21 26  2  0
  5  6  1  0
 26 27  1  0
 27 30  2  0
  1  2  1  0
 29 28  2  0
 28 21  1  0
 29 30  1  0
 13 14  1  0
 14 15  1  0
 12 31  1  0
  7  8  2  0
 11 32  1  0
 14 16  2  0
 22 33  2  0
 17 18  2  0
 33 34  1  0
  1  6  1  0
 34 35  2  0
  8  9  1  0
 35 36  1  0
  2  3  1  0
 36 37  2  0
 37 22  1  0
  9 10  2  0
 19 38  1  0
M  END
>  <ACTIVITY>  (12) 
29.4

$$$$

     RDKit          2D

 41 42  0  0  0  0  0  0  0  0999 V2000
    1.2990   -0.7500    0.0000 N   0  0  0  0  0  0  0  0  0  0  0  0
    1.2990    0.7500    0.0000 C   0  0  0  0  0  0  0  0  0  0  0  0
    0.0000    1.5000    0.0000 C   0  0  0  0  0  0  0  0  0  0  0  0
   -1.2990    0.7500    0.0000 N   0  0  0  0  0  0  0  0  0  0  0  0
   -1.2990   -0.7500    0.0000 C   0  0  0  0  0  0  0  0  0  0  0  0
    0.0000   -1.5000    0.0000 C   0  0  0  0  0  0  0  0  0  0  0  0
   -2.5987    1.5004    0.0000 C   0  0  0  0  0  0  0  0  0  0  0  0
   -3.8967    0.7484    0.0000 C   0  0  0  0  0  0  0  0  0  0  0  0
   -5.1969    1.4963    0.0000 C   0  0  0  0  0  0  0  0  0  0  0  0
   -5.1993    2.9963    0.0000 C   0  0  0  0  0  0  0  0  0  0  0  0
   -3.9015    3.7484    0.0000 C   0  0  0  0  0  0  0  0  0  0  0  0
   -2.6012    3.0004    0.0000 C   0  0  0  0  0  0  0  0  0  0  0  0
    5.1873   -7.5117    0.0000 C   0  0  0  0  0  0  0  0  0  0  0  0
    5.1894   -6.0109    0.0000 C   0  0  0  0  0  0  0  0  0  0  0  0
    3.8912   -5.2578    0.0000 N   0  0  0  0  0  0  0  0  0  0  0  0
    6.2297   -5.4127    0.0000 O   0  0  0  0  0  0  0  0  0  0  0  0
    4.4293   -9.7955    0.0000 C   0  0  0  0  0  0  0  0  0  0  0  0
    3.9707   -8.3673    0.0000 N   0  0  0  0  0  0  0  0  0  0  0  0
    6.3978   -8.3758    0.0000 C   0  0  0  0  0  0  0  0  0  0  0  0
    5.9293   -9.8007    0.0000 N   0  0  0  0  0  0  0  0  0  0  0  0
    6.8072  -11.0179    0.0000 C   0  0  0  0  0  0  0  0  0  0  0  0
    3.5430  -11.0066    0.0000 C   0  0  0  0  0  0  0  0  0  0  0  0
    3.8933   -3.7570    0.0000 C   0  0  0  0  0  0  0  0  0  0  0  0
    2.5951   -3.0039    0.0000 C   0  0  0  0  0  0  0  0  0  0  0  0
    2.5973   -1.5031    0.0000 C   0  0  0  0  0  0  0  0  0  0  0  0
    6.2979  -12.4235    0.0000 C   0  0  0  0  0  0  0  0  0  0  0  0
    7.2644  -13.5706    0.0000 C   0  0  0  0  0  0  0  0  0  0  0  0
    8.2847  -10.7495    0.0000 C   0  0  0  0  0  0  0  0  0  0  0  0
    9.2512  -11.8966    0.0000 C   0  0  0  0  0  0  0  0  0  0  0  0
    8.7411  -13.3071    0.0000 C   0  0  0  0  0  0  0  0  0  0  0  0
   -1.5630    3.6021    0.0000 C   0  0  0  0  0  0  0  0  0  0  0  0
   -3.9034    4.9484    0.0000 Cl  0  0  0  0  0  0  0  0  0  0  0  0
    2.0488  -10.9565    0.0000 C   0  0  0  0  0  0  0  0  0  0  0  0
    1.2565  -12.2302    0.0000 C   0  0  0  0  0  0  0  0  0  0  0  0
    1.9634  -13.5532    0.0000 C   0  0  0  0  0  0  0  0  0  0  0  0
    3.4626  -13.6025    0.0000 C   0  0  0  0  0  0  0  0  0  0  0  0
    4.2549  -12.3288    0.0000 C   0  0  0  0  0  0  0  0  0  0  0  0
    7.5381   -8.0021    0.0000 C   0  0  0  0  0  0  0  0  0  0  0  0
   16.7512   -4.1767    0.0000 Cl  0  0  0  0  0  0  0  0  0  0  0  0
   14.2512   -4.1767    0.0000 Cl  0  0  0  0  0  0  0  0  0  0  0  0
   11.7512   -4.1767    0.0000 Cl  0  0  0  0  0  0  0  0  0  0  0  0
 18 13  1  0
 13 19  2  0
 19 20  1  0
 20 17  1  0
  3  4  1  0
 20 21  1  0
 10 11  1  0
 17 22  1  0
  4  5  1  0
 15 23  1  0
 11 12  2  0
 23 24  1  0
 12  7  1  0
 24 25  1  0
 25  1  1  0
  4  7  1  0
 21 26  2  0
  5  6  1  0
 26 27  1  0
 27 30  2  0
  1  2  1  0
 29 28  2  0
 28 21  1  0
 29 30  1  0
 13 14  1  0
 14 15  1  0
 12 31  1  0
  7  8  2  0
 11 32  1  0
 14 16  2  0
 22 33  2  0
 17 18  2  0
 33 34  1  0
  1  6  1  0
 34 35  2  0
  8  9  1  0
 35 36  1  0
  2  3  1  0
 36 37  2  0
 37 22  1  0
  9 10  2  0
 19 38  1  0
M  END
>  <ACTIVITY>  (13) 
13.9

$$$$

     RDKit          2D

 39 41  0  0  0  0  0  0  0  0999 V2000
    5.1945   -3.0045    0.0000 N   0  0  0  0  0  0  0  0  0  0  0  0
    5.1969   -1.5045    0.0000 C   0  0  0  0  0  0  0  0  0  0  0  0
    3.8991   -0.7525    0.0000 C   0  0  0  0  0  0  0  0  0  0  0  0
    2.5987   -1.5004    0.0000 N   0  0  0  0  0  0  0  0  0  0  0  0
    2.5965   -3.0004    0.0000 C   0  0  0  0  0  0  0  0  0  0  0  0
    3.8943   -3.7525    0.0000 C   0  0  0  0  0  0  0  0  0  0  0  0
    1.2990   -0.7500    0.0000 C   0  0  0  0  0  0  0  0  0  0  0  0
    0.0000   -1.5000    0.0000 C   0  0  0  0  0  0  0  0  0  0  0  0
   -1.2990   -0.7500    0.0000 C   0  0  0  0  0  0  0  0  0  0  0  0
   -1.2990    0.7500    0.0000 C   0  0  0  0  0  0  0  0  0  0  0  0
    0.0000    1.5000    0.0000 C   0  0  0  0  0  0  0  0  0  0  0  0
    1.2990    0.7500    0.0000 C   0  0  0  0  0  0  0  0  0  0  0  0
    9.0720   -9.7724    0.0000 C   0  0  0  0  0  0  0  0  0  0  0  0
    9.0765   -8.2716    0.0000 C   0  0  0  0  0  0  0  0  0  0  0  0
    7.7795   -7.5165    0.0000 N   0  0  0  0  0  0  0  0  0  0  0  0
   10.1178   -7.6751    0.0000 O   0  0  0  0  0  0  0  0  0  0  0  0
    9.8104  -12.0626    0.0000 C   0  0  0  0  0  0  0  0  0  0  0  0
   10.2812  -10.6384    0.0000 N   0  0  0  0  0  0  0  0  0  0  0  0
    7.8541  -10.6261    0.0000 C   0  0  0  0  0  0  0  0  0  0  0  0
    8.3104  -12.0550    0.0000 N   0  0  0  0  0  0  0  0  0  0  0  0
    7.4222  -13.2647    0.0000 C   0  0  0  0  0  0  0  0  0  0  0  0
   10.6864  -13.2812    0.0000 C   0  0  0  0  0  0  0  0  0  0  0  0
    7.7840   -6.0157    0.0000 C   0  0  0  0  0  0  0  0  0  0  0  0
    6.4870   -5.2605    0.0000 C   0  0  0  0  0  0  0  0  0  0  0  0
    6.4915   -3.7597    0.0000 C   0  0  0  0  0  0  0  0  0  0  0  0
    7.9195  -14.6746    0.0000 C   0  0  0  0  0  0  0  0  0  0  0  0
    6.9432  -15.8134    0.0000 C   0  0  0  0  0  0  0  0  0  0  0  0
    5.9470  -12.9836    0.0000 C   0  0  0  0  0  0  0  0  0  0  0  0
    4.9707  -14.1224    0.0000 C   0  0  0  0  0  0  0  0  0  0  0  0
    5.4688  -15.5373    0.0000 C   0  0  0  0  0  0  0  0  0  0  0  0
    2.3383    1.3500    0.0000 C   0  0  0  0  0  0  0  0  0  0  0  0
    0.0000    2.7000    0.0000 C   0  0  0  0  0  0  0  0  0  0  0  0
   12.1809  -13.2439    0.0000 C   0  0  0  0  0  0  0  0  0  0  0  0
   12.9623  -14.5243    0.0000 C   0  0  0  0  0  0  0  0  0  0  0  0
   12.2442  -15.8412    0.0000 C   0  0  0  0  0  0  0  0  0  0  0  0
   10.7446  -15.8777    0.0000 C   0  0  0  0  0  0  0  0  0  0  0  0
    9.9632  -14.5973    0.0000 C   0  0  0  0  0  0  0  0  0  0  0  0
   17.9623   -6.4385    0.0000 Cl  0  0  0  0  0  0  0  0  0  0  0  0
   15.4623   -6.4385    0.0000 Cl  0  0  0  0  0  0  0  0  0  0  0  0
  9 10  2  0
 18 13  1  0
 13 19  2  0
 19 20  1  0
 20 17  1  0
  3  4  1  0
 20 21  1  0
 10 11  1  0
 17 22  1  0
  4  5  1  0
 15 23  1  0
 11 12  2  0
 23 24  1  0
 12  7  1  0
 24 25  1  0
 25  1  1  0
  4  7  1  0
 21 26  2  0
  5  6  1  0
 26 27  1  0
 27 30  2  0
  1  2  1  0
 29 28  2  0
 28 21  1  0
 29 30  1  0
 13 14  1  0
 14 15  1  0
 12 31  1  0
  7  8  2  0
 11 32  1  0
 14 16  2  0
 22 33  2  0
 17 18  2  0
 33 34  1  0
  1  6  1  0
 34 35  2  0
  8  9  1  0
 35 36  1  0
  2  3  1  0
 36 37  2  0
 37 22  1  0
M  END
>  <ACTIVITY>  (14) 
13.2

$$$$

     RDKit          2D

 46 48  0  0  0  0  0  0  0  0999 V2000
   18.6414   -4.1767    0.0000 Cl  0  0  0  0  0  0  0  0  0  0  0  0
    8.9398   -8.9109    0.0000 N   0  0  0  0  0  0  0  0  0  0  0  0
    8.7678  -10.3882    0.0000 C   0  0  0  0  0  0  0  0  0  0  0  0
   10.1385  -10.9973    0.0000 N   0  0  0  0  0  0  0  0  0  0  0  0
   11.1414   -9.8819    0.0000 C   0  0  0  0  0  0  0  0  0  0  0  0
   10.3905   -8.5834    0.0000 N   0  0  0  0  0  0  0  0  0  0  0  0
    1.2990   -0.7500    0.0000 N   0  0  0  0  0  0  0  0  0  0  0  0
    1.2990    0.7500    0.0000 C   0  0  0  0  0  0  0  0  0  0  0  0
    0.0000    1.5000    0.0000 C   0  0  0  0  0  0  0  0  0  0  0  0
   -1.2990    0.7500    0.0000 N   0  0  0  0  0  0  0  0  0  0  0  0
   -1.2990   -0.7500    0.0000 C   0  0  0  0  0  0  0  0  0  0  0  0
    0.0000   -1.5000    0.0000 C   0  0  0  0  0  0  0  0  0  0  0  0
   -2.5987    1.5004    0.0000 C   0  0  0  0  0  0  0  0  0  0  0  0
   -3.8967    0.7484    0.0000 C   0  0  0  0  0  0  0  0  0  0  0  0
   -5.1969    1.4963    0.0000 C   0  0  0  0  0  0  0  0  0  0  0  0
   -5.1993    2.9963    0.0000 C   0  0  0  0  0  0  0  0  0  0  0  0
   -3.9015    3.7484    0.0000 C   0  0  0  0  0  0  0  0  0  0  0  0
   -2.6012    3.0004    0.0000 C   0  0  0  0  0  0  0  0  0  0  0  0
    5.1873   -7.5117    0.0000 C   0  0  0  0  0  0  0  0  0  0  0  0
    5.1894   -6.0109    0.0000 C   0  0  0  0  0  0  0  0  0  0  0  0
    3.8912   -5.2578    0.0000 N   0  0  0  0  0  0  0  0  0  0  0  0
    6.2297   -5.4127    0.0000 O   0  0  0  0  0  0  0  0  0  0  0  0
    4.4293   -9.7955    0.0000 C   0  0  0  0  0  0  0  0  0  0  0  0
    3.9707   -8.3673    0.0000 N   0  0  0  0  0  0  0  0  0  0  0  0
    6.3978   -8.3758    0.0000 C   0  0  0  0  0  0  0  0  0  0  0  0
    5.9293   -9.8007    0.0000 N   0  0  0  0  0  0  0  0  0  0  0  0
    6.8072  -11.0179    0.0000 C   0  0  0  0  0  0  0  0  0  0  0  0
    3.5430  -11.0066    0.0000 C   0  0  0  0  0  0  0  0  0  0  0  0
    3.8933   -3.7570    0.0000 C   0  0  0  0  0  0  0  0  0  0  0  0
    2.5951   -3.0039    0.0000 C   0  0  0  0  0  0  0  0  0  0  0  0
    2.5973   -1.5031    0.0000 C   0  0  0  0  0  0  0  0  0  0  0  0
    6.2979  -12.4235    0.0000 C   0  0  0  0  0  0  0  0  0  0  0  0
    7.2644  -13.5706    0.0000 C   0  0  0  0  0  0  0  0  0  0  0  0
    8.2847  -10.7495    0.0000 C   0  0  0  0  0  0  0  0  0  0  0  0
    9.2512  -11.8966    0.0000 C   0  0  0  0  0  0  0  0  0  0  0  0
    8.7411  -13.3071    0.0000 C   0  0  0  0  0  0  0  0  0  0  0  0
   -1.5630    3.6021    0.0000 C   0  0  0  0  0  0  0  0  0  0  0  0
   -3.9034    4.9484    0.0000 Cl  0  0  0  0  0  0  0  0  0  0  0  0
    2.0488  -10.9565    0.0000 C   0  0  0  0  0  0  0  0  0  0  0  0
    1.2565  -12.2302    0.0000 C   0  0  0  0  0  0  0  0  0  0  0  0
    1.9634  -13.5532    0.0000 C   0  0  0  0  0  0  0  0  0  0  0  0
    3.4626  -13.6025    0.0000 C   0  0  0  0  0  0  0  0  0  0  0  0
    4.2549  -12.3288    0.0000 C   0  0  0  0  0  0  0  0  0  0  0  0
    7.8217   -7.9098    0.0000 C   0  0  0  0  0  0  0  0  0  0  0  0
   16.1414   -4.1767    0.0000 Cl  0  0  0  0  0  0  0  0  0  0  0  0
   13.6414   -4.1767    0.0000 Cl  0  0  0  0  0  0  0  0  0  0  0  0
  5  6  2  0
  6  2  1  0
  2  3  1  0
  3  4  2  0
  9 10  1  0
 26 27  1  0
 16 17  1  0
 23 28  1  0
 10 11  1  0
 21 29  1  0
 17 18  2  0
 29 30  1  0
 18 13  1  0
 30 31  1  0
 31  7  1  0
 10 13  1  0
 27 32  2  0
 11 12  1  0
 32 33  1  0
 33 36  2  0
  7  8  1  0
 35 34  2  0
 34 27  1  0
 35 36  1  0
 19 20  1  0
 20 21  1  0
 18 37  1  0
 13 14  2  0
 17 38  1  0
 20 22  2  0
 28 39  2  0
 23 24  2  0
 39 40  1  0
  7 12  1  0
 40 41  2  0
 14 15  1  0
 41 42  1  0
  8  9  1  0
 42 43  2  0
 43 28  1  0
 15 16  2  0
 24 19  1  0
 19 25  2  0
 25 26  1  0
 26 23  1  0
  4  5  1  0
 25 44  1  0
 44  2  1  0
M  END
>  <ACTIVITY>  (15) 
12.3

$$$$

     RDKit          2D

 38 38  0  0  0  0  0  0  0  0999 V2000
    5.1945   -3.0045    0.0000 N   0  0  0  0  0  0  0  0  0  0  0  0
    5.1969   -1.5045    0.0000 C   0  0  0  0  0  0  0  0  0  0  0  0
    3.8991   -0.7525    0.0000 C   0  0  0  0  0  0  0  0  0  0  0  0
    2.5987   -1.5004    0.0000 N   0  0  0  0  0  0  0  0  0  0  0  0
    2.5965   -3.0004    0.0000 C   0  0  0  0  0  0  0  0  0  0  0  0
    3.8943   -3.7525    0.0000 C   0  0  0  0  0  0  0  0  0  0  0  0
    1.2990   -0.7500    0.0000 C   0  0  0  0  0  0  0  0  0  0  0  0
    0.0000   -1.5000    0.0000 C   0  0  0  0  0  0  0  0  0  0  0  0
   -1.2990   -0.7500    0.0000 C   0  0  0  0  0  0  0  0  0  0  0  0
   -1.2990    0.7500    0.0000 C   0  0  0  0  0  0  0  0  0  0  0  0
    0.0000    1.5000    0.0000 C   0  0  0  0  0  0  0  0  0  0  0  0
    1.2990    0.7500    0.0000 C   0  0  0  0  0  0  0  0  0  0  0  0
    9.0720   -9.7724    0.0000 C   0  0  0  0  0  0  0  0  0  0  0  0
    9.0765   -8.2716    0.0000 C   0  0  0  0  0  0  0  0  0  0  0  0
    7.7795   -7.5165    0.0000 N   0  0  0  0  0  0  0  0  0  0  0  0
   10.1178   -7.6751    0.0000 O   0  0  0  0  0  0  0  0  0  0  0  0
    8.3104  -12.0550    0.0000 C   0  0  0  0  0  0  0  0  0  0  0  0
    7.8541  -10.6261    0.0000 N   0  0  0  0  0  0  0  0  0  0  0  0
   10.2812  -10.6384    0.0000 C   0  0  0  0  0  0  0  0  0  0  0  0
    9.8104  -12.0626    0.0000 N   0  0  0  0  0  0  0  0  0  0  0  0
   10.6864  -13.2812    0.0000 C   0  0  0  0  0  0  0  0  0  0  0  0
    7.6002  -13.0223    0.0000 C   0  0  0  0  0  0  0  0  0  0  0  0
    7.7840   -6.0157    0.0000 C   0  0  0  0  0  0  0  0  0  0  0  0
    6.4870   -5.2605    0.0000 C   0  0  0  0  0  0  0  0  0  0  0  0
    6.4915   -3.7597    0.0000 C   0  0  0  0  0  0  0  0  0  0  0  0
   10.1748  -14.6860    0.0000 C   0  0  0  0  0  0  0  0  0  0  0  0
   11.1395  -15.8346    0.0000 C   0  0  0  0  0  0  0  0  0  0  0  0
   12.1643  -13.0151    0.0000 C   0  0  0  0  0  0  0  0  0  0  0  0
   13.1290  -14.1637    0.0000 C   0  0  0  0  0  0  0  0  0  0  0  0
   12.6166  -15.5735    0.0000 C   0  0  0  0  0  0  0  0  0  0  0  0
    2.3383    1.3500    0.0000 C   0  0  0  0  0  0  0  0  0  0  0  0
    0.0000    2.7000    0.0000 Cl  0  0  0  0  0  0  0  0  0  0  0  0
    8.6971  -14.9485    0.0000 O   0  0  0  0  0  0  0  0  0  0  0  0
    8.2874  -16.0764    0.0000 C   0  0  0  0  0  0  0  0  0  0  0  0
   11.4221  -10.2666    0.0000 C   0  0  0  0  0  0  0  0  0  0  0  0
   20.6290   -6.6792    0.0000 Cl  0  0  0  0  0  0  0  0  0  0  0  0
   18.1290   -6.6792    0.0000 Cl  0  0  0  0  0  0  0  0  0  0  0  0
   15.6290   -6.6792    0.0000 Cl  0  0  0  0  0  0  0  0  0  0  0  0
  8  9  2  0
  2  3  1  0
  9 10  1  0
 18 13  1  0
 13 19  2  0
 19 20  1  0
 20 17  1  0
  3  4  1  0
 20 21  1  0
 10 11  2  0
 17 22  1  0
  4  5  1  0
 15 23  1  0
 11 12  1  0
 23 24  1  0
 12  7  2  0
 24 25  1  0
 25  1  1  0
  4  7  1  0
 21 26  2  0
  5  6  1  0
 26 27  1  0
 27 30  2  0
  1  2  1  0
 29 28  2  0
 28 21  1  0
 29 30  1  0
 13 14  1  0
 14 15  1  0
 12 31  1  0
  7  8  1  0
 11 32  1  0
 14 16  2  0
 26 33  1  0
 17 18  2  0
 33 34  1  0
  1  6  1  0
 19 35  1  0
M  END
>  <ACTIVITY>  (16) 
12.8

$$$$

     RDKit          2D

 37 38  0  0  0  0  0  0  0  0999 V2000
    5.1945   -3.0045    0.0000 N   0  0  0  0  0  0  0  0  0  0  0  0
    5.1969   -1.5045    0.0000 C   0  0  0  0  0  0  0  0  0  0  0  0
    3.8991   -0.7525    0.0000 C   0  0  0  0  0  0  0  0  0  0  0  0
    2.5987   -1.5004    0.0000 N   0  0  0  0  0  0  0  0  0  0  0  0
    2.5965   -3.0004    0.0000 C   0  0  0  0  0  0  0  0  0  0  0  0
    3.8943   -3.7525    0.0000 C   0  0  0  0  0  0  0  0  0  0  0  0
    1.2990   -0.7500    0.0000 C   0  0  0  0  0  0  0  0  0  0  0  0
    0.0000   -1.5000    0.0000 C   0  0  0  0  0  0  0  0  0  0  0  0
   -1.2990   -0.7500    0.0000 C   0  0  0  0  0  0  0  0  0  0  0  0
   -1.2990    0.7500    0.0000 C   0  0  0  0  0  0  0  0  0  0  0  0
    0.0000    1.5000    0.0000 C   0  0  0  0  0  0  0  0  0  0  0  0
    1.2990    0.7500    0.0000 C   0  0  0  0  0  0  0  0  0  0  0  0
    9.0720   -9.7724    0.0000 C   0  0  0  0  0  0  0  0  0  0  0  0
    9.0765   -8.2716    0.0000 C   0  0  0  0  0  0  0  0  0  0  0  0
    7.7795   -7.5165    0.0000 N   0  0  0  0  0  0  0  0  0  0  0  0
   10.1178   -7.6751    0.0000 O   0  0  0  0  0  0  0  0  0  0  0  0
    8.3104  -12.0550    0.0000 C   0  0  0  0  0  0  0  0  0  0  0  0
    7.8541  -10.6261    0.0000 N   0  0  0  0  0  0  0  0  0  0  0  0
   10.2812  -10.6384    0.0000 C   0  0  0  0  0  0  0  0  0  0  0  0
    9.8104  -12.0626    0.0000 N   0  0  0  0  0  0  0  0  0  0  0  0
   10.6864  -13.2812    0.0000 C   0  0  0  0  0  0  0  0  0  0  0  0
    7.6002  -13.0223    0.0000 C   0  0  0  0  0  0  0  0  0  0  0  0
    7.7840   -6.0157    0.0000 C   0  0  0  0  0  0  0  0  0  0  0  0
    6.4870   -5.2605    0.0000 C   0  0  0  0  0  0  0  0  0  0  0  0
    6.4915   -3.7597    0.0000 C   0  0  0  0  0  0  0  0  0  0  0  0
   10.1748  -14.6860    0.0000 C   0  0  0  0  0  0  0  0  0  0  0  0
   11.1395  -15.8346    0.0000 C   0  0  0  0  0  0  0  0  0  0  0  0
   12.1643  -13.0151    0.0000 C   0  0  0  0  0  0  0  0  0  0  0  0
   13.1290  -14.1637    0.0000 C   0  0  0  0  0  0  0  0  0  0  0  0
   12.6166  -15.5735    0.0000 C   0  0  0  0  0  0  0  0  0  0  0  0
    2.3383    1.3500    0.0000 C   0  0  0  0  0  0  0  0  0  0  0  0
    0.0000    2.7000    0.0000 C   0  0  0  0  0  0  0  0  0  0  0  0
    8.6971  -14.9485    0.0000 O   0  0  0  0  0  0  0  0  0  0  0  0
    8.2874  -16.0764    0.0000 C   0  0  0  0  0  0  0  0  0  0  0  0
   11.4221  -10.2666    0.0000 C   0  0  0  0  0  0  0  0  0  0  0  0
   18.1290   -6.6792    0.0000 Cl  0  0  0  0  0  0  0  0  0  0  0  0
   15.6290   -6.6792    0.0000 Cl  0  0  0  0  0  0  0  0  0  0  0  0
  8  9  2  0
  2  3  1  0
  9 10  1  0
 18 13  1  0
 13 19  2  0
 19 20  1  0
 20 17  1  0
  3  4  1  0
 20 21  1  0
 10 11  2  0
 17 22  1  0
  4  5  1  0
 15 23  1  0
 11 12  1  0
 23 24  1  0
 12  7  2  0
 24 25  1  0
 25  1  1  0
  4  7  1  0
 21 26  2  0
  5  6  1  0
 26 27  1  0
 27 30  2  0
  1  2  1  0
 29 28  2  0
 28 21  1  0
 29 30  1  0
 13 14  1  0
 14 15  1  0
 12 31  1  0
  7  8  1  0
 11 32  1  0
 14 16  2  0
 26 33  1  0
 17 18  2  0
 33 34  1  0
  1  6  1  0
 19 35  1  0
M  END
>  <ACTIVITY>  (17) 
144

$$$$

     RDKit          2D

 40 40  0  0  0  0  0  0  0  0999 V2000
    5.1945   -3.0045    0.0000 N   0  0  0  0  0  0  0  0  0  0  0  0
    5.1969   -1.5045    0.0000 C   0  0  0  0  0  0  0  0  0  0  0  0
    3.8991   -0.7525    0.0000 C   0  0  0  0  0  0  0  0  0  0  0  0
    2.5987   -1.5004    0.0000 N   0  0  0  0  0  0  0  0  0  0  0  0
    2.5965   -3.0004    0.0000 C   0  0  0  0  0  0  0  0  0  0  0  0
    3.8943   -3.7525    0.0000 C   0  0  0  0  0  0  0  0  0  0  0  0
    1.2990   -0.7500    0.0000 C   0  0  0  0  0  0  0  0  0  0  0  0
    0.0000   -1.5000    0.0000 C   0  0  0  0  0  0  0  0  0  0  0  0
   -1.2990   -0.7500    0.0000 C   0  0  0  0  0  0  0  0  0  0  0  0
   -1.2990    0.7500    0.0000 C   0  0  0  0  0  0  0  0  0  0  0  0
    0.0000    1.5000    0.0000 C   0  0  0  0  0  0  0  0  0  0  0  0
    1.2990    0.7500    0.0000 C   0  0  0  0  0  0  0  0  0  0  0  0
    9.0720   -9.7724    0.0000 C   0  0  0  0  0  0  0  0  0  0  0  0
    9.0765   -8.2716    0.0000 C   0  0  0  0  0  0  0  0  0  0  0  0
    7.7795   -7.5165    0.0000 N   0  0  0  0  0  0  0  0  0  0  0  0
   10.1178   -7.6751    0.0000 O   0  0  0  0  0  0  0  0  0  0  0  0
    8.3104  -12.0550    0.0000 C   0  0  0  0  0  0  0  0  0  0  0  0
    7.8541  -10.6261    0.0000 N   0  0  0  0  0  0  0  0  0  0  0  0
   10.2812  -10.6384    0.0000 C   0  0  0  0  0  0  0  0  0  0  0  0
    9.8104  -12.0626    0.0000 N   0  0  0  0  0  0  0  0  0  0  0  0
   10.6864  -13.2812    0.0000 C   0  0  0  0  0  0  0  0  0  0  0  0
    7.4212  -13.2608    0.0000 C   0  0  0  0  0  0  0  0  0  0  0  0
    7.7840   -6.0157    0.0000 C   0  0  0  0  0  0  0  0  0  0  0  0
    6.4870   -5.2605    0.0000 C   0  0  0  0  0  0  0  0  0  0  0  0
    6.4915   -3.7597    0.0000 C   0  0  0  0  0  0  0  0  0  0  0  0
   10.1748  -14.6860    0.0000 C   0  0  0  0  0  0  0  0  0  0  0  0
   11.1395  -15.8346    0.0000 C   0  0  0  0  0  0  0  0  0  0  0  0
   12.1643  -13.0151    0.0000 C   0  0  0  0  0  0  0  0  0  0  0  0
   13.1290  -14.1637    0.0000 C   0  0  0  0  0  0  0  0  0  0  0  0
   12.6166  -15.5735    0.0000 C   0  0  0  0  0  0  0  0  0  0  0  0
    2.3383    1.3500    0.0000 C   0  0  0  0  0  0  0  0  0  0  0  0
    0.0000    2.7000    0.0000 Cl  0  0  0  0  0  0  0  0  0  0  0  0
    8.6971  -14.9485    0.0000 O   0  0  0  0  0  0  0  0  0  0  0  0
    8.2874  -16.0764    0.0000 C   0  0  0  0  0  0  0  0  0  0  0  0
   11.4221  -10.2666    0.0000 C   0  0  0  0  0  0  0  0  0  0  0  0
    5.9296  -13.0942    0.0000 C   0  0  0  0  0  0  0  0  0  0  0  0
    5.2174  -14.0600    0.0000 C   0  0  0  0  0  0  0  0  0  0  0  0
   20.6290   -6.6792    0.0000 Cl  0  0  0  0  0  0  0  0  0  0  0  0
   18.1290   -6.6792    0.0000 Cl  0  0  0  0  0  0  0  0  0  0  0  0
   15.6290   -6.6792    0.0000 Cl  0  0  0  0  0  0  0  0  0  0  0  0
  9 10  2  0
 18 13  1  0
 13 19  2  0
 19 20  1  0
 20 17  1  0
  3  4  1  0
 20 21  1  0
 10 11  1  0
 17 22  1  0
  4  5  1  0
 15 23  1  0
 11 12  2  0
 23 24  1  0
 12  7  1  0
 24 25  1  0
 25  1  1  0
  4  7  1  0
 21 26  2  0
  5  6  1  0
 26 27  1  0
 27 30  2  0
  1  2  1  0
 29 28  2  0
 28 21  1  0
 29 30  1  0
 13 14  1  0
 14 15  1  0
 12 31  1  0
  7  8  2  0
 11 32  1  0
 14 16  2  0
 26 33  1  0
 17 18  2  0
 33 34  1  0
  1  6  1  0
 19 35  1  0
  8  9  1  0
 22 36  1  0
  2  3  1  0
 36 37  1  0
M  END
>  <ACTIVITY>  (18) 
171

$$$$

     RDKit          2D

 39 40  0  0  0  0  0  0  0  0999 V2000
    5.1945   -3.0045    0.0000 N   0  0  0  0  0  0  0  0  0  0  0  0
    5.1969   -1.5045    0.0000 C   0  0  0  0  0  0  0  0  0  0  0  0
    3.8991   -0.7525    0.0000 C   0  0  0  0  0  0  0  0  0  0  0  0
    2.5987   -1.5004    0.0000 N   0  0  0  0  0  0  0  0  0  0  0  0
    2.5965   -3.0004    0.0000 C   0  0  0  0  0  0  0  0  0  0  0  0
    3.8943   -3.7525    0.0000 C   0  0  0  0  0  0  0  0  0  0  0  0
    1.2990   -0.7500    0.0000 C   0  0  0  0  0  0  0  0  0  0  0  0
    0.0000   -1.5000    0.0000 C   0  0  0  0  0  0  0  0  0  0  0  0
   -1.2990   -0.7500    0.0000 C   0  0  0  0  0  0  0  0  0  0  0  0
   -1.2990    0.7500    0.0000 C   0  0  0  0  0  0  0  0  0  0  0  0
    0.0000    1.5000    0.0000 C   0  0  0  0  0  0  0  0  0  0  0  0
    1.2990    0.7500    0.0000 C   0  0  0  0  0  0  0  0  0  0  0  0
    9.0720   -9.7724    0.0000 C   0  0  0  0  0  0  0  0  0  0  0  0
    9.0765   -8.2716    0.0000 C   0  0  0  0  0  0  0  0  0  0  0  0
    7.7795   -7.5165    0.0000 N   0  0  0  0  0  0  0  0  0  0  0  0
   10.1178   -7.6751    0.0000 O   0  0  0  0  0  0  0  0  0  0  0  0
    8.3104  -12.0550    0.0000 C   0  0  0  0  0  0  0  0  0  0  0  0
    7.8541  -10.6261    0.0000 N   0  0  0  0  0  0  0  0  0  0  0  0
   10.2812  -10.6384    0.0000 C   0  0  0  0  0  0  0  0  0  0  0  0
    9.8104  -12.0626    0.0000 N   0  0  0  0  0  0  0  0  0  0  0  0
   10.6864  -13.2812    0.0000 C   0  0  0  0  0  0  0  0  0  0  0  0
    7.4212  -13.2608    0.0000 C   0  0  0  0  0  0  0  0  0  0  0  0
    7.7840   -6.0157    0.0000 C   0  0  0  0  0  0  0  0  0  0  0  0
    6.4870   -5.2605    0.0000 C   0  0  0  0  0  0  0  0  0  0  0  0
    6.4915   -3.7597    0.0000 C   0  0  0  0  0  0  0  0  0  0  0  0
   10.1748  -14.6860    0.0000 C   0  0  0  0  0  0  0  0  0  0  0  0
   11.1395  -15.8346    0.0000 C   0  0  0  0  0  0  0  0  0  0  0  0
   12.1643  -13.0151    0.0000 C   0  0  0  0  0  0  0  0  0  0  0  0
   13.1290  -14.1637    0.0000 C   0  0  0  0  0  0  0  0  0  0  0  0
   12.6166  -15.5735    0.0000 C   0  0  0  0  0  0  0  0  0  0  0  0
    2.3383    1.3500    0.0000 C   0  0  0  0  0  0  0  0  0  0  0  0
    0.0000    2.7000    0.0000 C   0  0  0  0  0  0  0  0  0  0  0  0
    8.6971  -14.9485    0.0000 O   0  0  0  0  0  0  0  0  0  0  0  0
    8.2874  -16.0764    0.0000 C   0  0  0  0  0  0  0  0  0  0  0  0
   11.4221  -10.2666    0.0000 C   0  0  0  0  0  0  0  0  0  0  0  0
    5.9296  -13.0942    0.0000 C   0  0  0  0  0  0  0  0  0  0  0  0
    5.2174  -14.0600    0.0000 C   0  0  0  0  0  0  0  0  0  0  0  0
   18.1290   -6.6792    0.0000 Cl  0  0  0  0  0  0  0  0  0  0  0  0
   15.6290   -6.6792    0.0000 Cl  0  0  0  0  0  0  0  0  0  0  0  0
  9 10  2  0
 18 13  1  0
 13 19  2  0
 19 20  1  0
 20 17  1  0
  3  4  1  0
 20 21  1  0
 10 11  1  0
 17 22  1  0
  4  5  1  0
 15 23  1  0
 11 12  2  0
 23 24  1  0
 12  7  1  0
 24 25  1  0
 25  1  1  0
  4  7  1  0
 21 26  2  0
  5  6  1  0
 26 27  1  0
 27 30  2  0
  1  2  1  0
 29 28  2  0
 28 21  1  0
 29 30  1  0
 13 14  1  0
 14 15  1  0
 12 31  1  0
  7  8  2  0
 11 32  1  0
 14 16  2  0
 26 33  1  0
 17 18  2  0
 33 34  1  0
  1  6  1  0
 19 35  1  0
  8  9  1  0
 22 36  1  0
  2  3  1  0
 36 37  1  0
M  END
>  <ACTIVITY>  (19) 
253

$$$$

     RDKit          2D

 38 38  0  0  0  0  0  0  0  0999 V2000
    5.1945   -3.0045    0.0000 N   0  0  0  0  0  0  0  0  0  0  0  0
    5.1969   -1.5045    0.0000 C   0  0  0  0  0  0  0  0  0  0  0  0
    3.8991   -0.7525    0.0000 C   0  0  0  0  0  0  0  0  0  0  0  0
    2.5987   -1.5004    0.0000 N   0  0  0  0  0  0  0  0  0  0  0  0
    2.5965   -3.0004    0.0000 C   0  0  0  0  0  0  0  0  0  0  0  0
    3.8943   -3.7525    0.0000 C   0  0  0  0  0  0  0  0  0  0  0  0
    1.2990   -0.7500    0.0000 C   0  0  0  0  0  0  0  0  0  0  0  0
    0.0000   -1.5000    0.0000 C   0  0  0  0  0  0  0  0  0  0  0  0
   -1.2990   -0.7500    0.0000 C   0  0  0  0  0  0  0  0  0  0  0  0
   -1.2990    0.7500    0.0000 C   0  0  0  0  0  0  0  0  0  0  0  0
    0.0000    1.5000    0.0000 C   0  0  0  0  0  0  0  0  0  0  0  0
    1.2990    0.7500    0.0000 C   0  0  0  0  0  0  0  0  0  0  0  0
    9.0720   -9.7724    0.0000 C   0  0  0  0  0  0  0  0  0  0  0  0
    9.0765   -8.2716    0.0000 C   0  0  0  0  0  0  0  0  0  0  0  0
    7.7795   -7.5165    0.0000 N   0  0  0  0  0  0  0  0  0  0  0  0
   10.1178   -7.6751    0.0000 O   0  0  0  0  0  0  0  0  0  0  0  0
    8.3104  -12.0550    0.0000 C   0  0  0  0  0  0  0  0  0  0  0  0
    7.8541  -10.6261    0.0000 N   0  0  0  0  0  0  0  0  0  0  0  0
   10.2812  -10.6384    0.0000 C   0  0  0  0  0  0  0  0  0  0  0  0
    9.8104  -12.0626    0.0000 N   0  0  0  0  0  0  0  0  0  0  0  0
   10.6864  -13.2812    0.0000 C   0  0  0  0  0  0  0  0  0  0  0  0
    7.6002  -13.0223    0.0000 C   0  0  0  0  0  0  0  0  0  0  0  0
    7.7840   -6.0157    0.0000 C   0  0  0  0  0  0  0  0  0  0  0  0
    6.4870   -5.2605    0.0000 C   0  0  0  0  0  0  0  0  0  0  0  0
    6.4915   -3.7597    0.0000 C   0  0  0  0  0  0  0  0  0  0  0  0
   10.1748  -14.6860    0.0000 C   0  0  0  0  0  0  0  0  0  0  0  0
   11.1395  -15.8346    0.0000 C   0  0  0  0  0  0  0  0  0  0  0  0
   12.1643  -13.0151    0.0000 C   0  0  0  0  0  0  0  0  0  0  0  0
   13.1290  -14.1637    0.0000 C   0  0  0  0  0  0  0  0  0  0  0  0
   12.6166  -15.5735    0.0000 C   0  0  0  0  0  0  0  0  0  0  0  0
    2.3383    1.3500    0.0000 C   0  0  0  0  0  0  0  0  0  0  0  0
    0.0000    2.7000    0.0000 Cl  0  0  0  0  0  0  0  0  0  0  0  0
   11.4221  -10.2666    0.0000 C   0  0  0  0  0  0  0  0  0  0  0  0
   13.5842  -16.7208    0.0000 O   0  0  0  0  0  0  0  0  0  0  0  0
   14.7656  -16.5102    0.0000 C   0  0  0  0  0  0  0  0  0  0  0  0
   22.5617   -6.8600    0.0000 Cl  0  0  0  0  0  0  0  0  0  0  0  0
   20.0617   -6.8600    0.0000 Cl  0  0  0  0  0  0  0  0  0  0  0  0
   17.5617   -6.8600    0.0000 Cl  0  0  0  0  0  0  0  0  0  0  0  0
  8  9  2  0
  2  3  1  0
  9 10  1  0
 18 13  1  0
 13 19  2  0
 19 20  1  0
 20 17  1  0
  3  4  1  0
 20 21  1  0
 10 11  2  0
 17 22  1  0
  4  5  1  0
 15 23  1  0
 11 12  1  0
 23 24  1  0
 12  7  2  0
 24 25  1  0
 25  1  1  0
  4  7  1  0
 21 26  2  0
  5  6  1  0
 26 27  1  0
 27 30  2  0
  1  2  1  0
 29 28  2  0
 28 21  1  0
 29 30  1  0
 13 14  1  0
 14 15  1  0
 12 31  1  0
  7  8  1  0
 11 32  1  0
 14 16  2  0
 19 33  1  0
 17 18  2  0
 30 34  1  0
  1  6  1  0
 34 35  1  0
M  END
>  <ACTIVITY>  (20) 
23.1

$$$$

     RDKit          2D

 37 38  0  0  0  0  0  0  0  0999 V2000
    5.1945   -3.0045    0.0000 N   0  0  0  0  0  0  0  0  0  0  0  0
    5.1969   -1.5045    0.0000 C   0  0  0  0  0  0  0  0  0  0  0  0
    3.8991   -0.7525    0.0000 C   0  0  0  0  0  0  0  0  0  0  0  0
    2.5987   -1.5004    0.0000 N   0  0  0  0  0  0  0  0  0  0  0  0
    2.5965   -3.0004    0.0000 C   0  0  0  0  0  0  0  0  0  0  0  0
    3.8943   -3.7525    0.0000 C   0  0  0  0  0  0  0  0  0  0  0  0
    1.2990   -0.7500    0.0000 C   0  0  0  0  0  0  0  0  0  0  0  0
    0.0000   -1.5000    0.0000 C   0  0  0  0  0  0  0  0  0  0  0  0
   -1.2990   -0.7500    0.0000 C   0  0  0  0  0  0  0  0  0  0  0  0
   -1.2990    0.7500    0.0000 C   0  0  0  0  0  0  0  0  0  0  0  0
    0.0000    1.5000    0.0000 C   0  0  0  0  0  0  0  0  0  0  0  0
    1.2990    0.7500    0.0000 C   0  0  0  0  0  0  0  0  0  0  0  0
    9.0720   -9.7724    0.0000 C   0  0  0  0  0  0  0  0  0  0  0  0
    9.0765   -8.2716    0.0000 C   0  0  0  0  0  0  0  0  0  0  0  0
    7.7795   -7.5165    0.0000 N   0  0  0  0  0  0  0  0  0  0  0  0
   10.1178   -7.6751    0.0000 O   0  0  0  0  0  0  0  0  0  0  0  0
    8.3104  -12.0550    0.0000 C   0  0  0  0  0  0  0  0  0  0  0  0
    7.8541  -10.6261    0.0000 N   0  0  0  0  0  0  0  0  0  0  0  0
   10.2812  -10.6384    0.0000 C   0  0  0  0  0  0  0  0  0  0  0  0
    9.8104  -12.0626    0.0000 N   0  0  0  0  0  0  0  0  0  0  0  0
   10.6864  -13.2812    0.0000 C   0  0  0  0  0  0  0  0  0  0  0  0
    7.6002  -13.0223    0.0000 C   0  0  0  0  0  0  0  0  0  0  0  0
    7.7840   -6.0157    0.0000 C   0  0  0  0  0  0  0  0  0  0  0  0
    6.4870   -5.2605    0.0000 C   0  0  0  0  0  0  0  0  0  0  0  0
    6.4915   -3.7597    0.0000 C   0  0  0  0  0  0  0  0  0  0  0  0
   10.1748  -14.6860    0.0000 C   0  0  0  0  0  0  0  0  0  0  0  0
   11.1395  -15.8346    0.0000 C   0  0  0  0  0  0  0  0  0  0  0  0
   12.1643  -13.0151    0.0000 C   0  0  0  0  0  0  0  0  0  0  0  0
   13.1290  -14.1637    0.0000 C   0  0  0  0  0  0  0  0  0  0  0  0
   12.6166  -15.5735    0.0000 C   0  0  0  0  0  0  0  0  0  0  0  0
    2.3383    1.3500    0.0000 C   0  0  0  0  0  0  0  0  0  0  0  0
    0.0000    2.7000    0.0000 C   0  0  0  0  0  0  0  0  0  0  0  0
   11.4221  -10.2666    0.0000 C   0  0  0  0  0  0  0  0  0  0  0  0
   13.5842  -16.7208    0.0000 O   0  0  0  0  0  0  0  0  0  0  0  0
   14.7656  -16.5102    0.0000 C   0  0  0  0  0  0  0  0  0  0  0  0
   20.0617   -6.8600    0.0000 Cl  0  0  0  0  0  0  0  0  0  0  0  0
   17.5617   -6.8600    0.0000 Cl  0  0  0  0  0  0  0  0  0  0  0  0
  8  9  2  0
  2  3  1  0
  9 10  1  0
 18 13  1  0
 13 19  2  0
 19 20  1  0
 20 17  1  0
  3  4  1  0
 20 21  1  0
 10 11  2  0
 17 22  1  0
  4  5  1  0
 15 23  1  0
 11 12  1  0
 23 24  1  0
 12  7  2  0
 24 25  1  0
 25  1  1  0
  4  7  1  0
 21 26  2  0
  5  6  1  0
 26 27  1  0
 27 30  2  0
  1  2  1  0
 29 28  2  0
 28 21  1  0
 29 30  1  0
 13 14  1  0
 14 15  1  0
 12 31  1  0
  7  8  1  0
 11 32  1  0
 14 16  2  0
 19 33  1  0
 17 18  2  0
 30 34  1  0
  1  6  1  0
 34 35  1  0
M  END
>  <ACTIVITY>  (21) 
62.7

$$$$

     RDKit          2D

 40 40  0  0  0  0  0  0  0  0999 V2000
    5.1945   -3.0045    0.0000 N   0  0  0  0  0  0  0  0  0  0  0  0
    5.1969   -1.5045    0.0000 C   0  0  0  0  0  0  0  0  0  0  0  0
    3.8991   -0.7525    0.0000 C   0  0  0  0  0  0  0  0  0  0  0  0
    2.5987   -1.5004    0.0000 N   0  0  0  0  0  0  0  0  0  0  0  0
    2.5965   -3.0004    0.0000 C   0  0  0  0  0  0  0  0  0  0  0  0
    3.8943   -3.7525    0.0000 C   0  0  0  0  0  0  0  0  0  0  0  0
    1.2990   -0.7500    0.0000 C   0  0  0  0  0  0  0  0  0  0  0  0
    0.0000   -1.5000    0.0000 C   0  0  0  0  0  0  0  0  0  0  0  0
   -1.2990   -0.7500    0.0000 C   0  0  0  0  0  0  0  0  0  0  0  0
   -1.2990    0.7500    0.0000 C   0  0  0  0  0  0  0  0  0  0  0  0
    0.0000    1.5000    0.0000 C   0  0  0  0  0  0  0  0  0  0  0  0
    1.2990    0.7500    0.0000 C   0  0  0  0  0  0  0  0  0  0  0  0
    9.0720   -9.7724    0.0000 C   0  0  0  0  0  0  0  0  0  0  0  0
    9.0765   -8.2716    0.0000 C   0  0  0  0  0  0  0  0  0  0  0  0
    7.7795   -7.5165    0.0000 N   0  0  0  0  0  0  0  0  0  0  0  0
   10.1178   -7.6751    0.0000 O   0  0  0  0  0  0  0  0  0  0  0  0
    8.3104  -12.0550    0.0000 C   0  0  0  0  0  0  0  0  0  0  0  0
    7.8541  -10.6261    0.0000 N   0  0  0  0  0  0  0  0  0  0  0  0
   10.2812  -10.6384    0.0000 C   0  0  0  0  0  0  0  0  0  0  0  0
    9.8104  -12.0626    0.0000 N   0  0  0  0  0  0  0  0  0  0  0  0
   10.6864  -13.2812    0.0000 C   0  0  0  0  0  0  0  0  0  0  0  0
    7.4212  -13.2608    0.0000 C   0  0  0  0  0  0  0  0  0  0  0  0
    7.7840   -6.0157    0.0000 C   0  0  0  0  0  0  0  0  0  0  0  0
    6.4870   -5.2605    0.0000 C   0  0  0  0  0  0  0  0  0  0  0  0
    6.4915   -3.7597    0.0000 C   0  0  0  0  0  0  0  0  0  0  0  0
   10.1748  -14.6860    0.0000 C   0  0  0  0  0  0  0  0  0  0  0  0
   11.1395  -15.8346    0.0000 C   0  0  0  0  0  0  0  0  0  0  0  0
   12.1643  -13.0151    0.0000 C   0  0  0  0  0  0  0  0  0  0  0  0
   13.1290  -14.1637    0.0000 C   0  0  0  0  0  0  0  0  0  0  0  0
   12.6166  -15.5735    0.0000 C   0  0  0  0  0  0  0  0  0  0  0  0
    2.3383    1.3500    0.0000 C   0  0  0  0  0  0  0  0  0  0  0  0
    0.0000    2.7000    0.0000 Cl  0  0  0  0  0  0  0  0  0  0  0  0
   11.4221  -10.2666    0.0000 C   0  0  0  0  0  0  0  0  0  0  0  0
   13.5842  -16.7208    0.0000 O   0  0  0  0  0  0  0  0  0  0  0  0
   14.7656  -16.5102    0.0000 C   0  0  0  0  0  0  0  0  0  0  0  0
    5.9296  -13.0942    0.0000 C   0  0  0  0  0  0  0  0  0  0  0  0
    5.2174  -14.0600    0.0000 C   0  0  0  0  0  0  0  0  0  0  0  0
   22.5617   -6.8600    0.0000 Cl  0  0  0  0  0  0  0  0  0  0  0  0
   20.0617   -6.8600    0.0000 Cl  0  0  0  0  0  0  0  0  0  0  0  0
   17.5617   -6.8600    0.0000 Cl  0  0  0  0  0  0  0  0  0  0  0  0
  9 10  2  0
 18 13  1  0
 13 19  2  0
 19 20  1  0
 20 17  1  0
  3  4  1  0
 20 21  1  0
 10 11  1  0
 17 22  1  0
  4  5  1  0
 15 23  1  0
 11 12  2  0
 23 24  1  0
 12  7  1  0
 24 25  1  0
 25  1  1  0
  4  7  1  0
 21 26  2  0
  5  6  1  0
 26 27  1  0
 27 30  2  0
  1  2  1  0
 29 28  2  0
 28 21  1  0
 29 30  1  0
 13 14  1  0
 14 15  1  0
 12 31  1  0
  7  8  2  0
 11 32  1  0
 14 16  2  0
 19 33  1  0
 17 18  2  0
 30 34  1  0
  1  6  1  0
 34 35  1  0
  8  9  1  0
 22 36  1  0
  2  3  1  0
 36 37  1  0
M  END
>  <ACTIVITY>  (22) 
15.2

$$$$

     RDKit          2D

 39 40  0  0  0  0  0  0  0  0999 V2000
    5.1945   -3.0045    0.0000 N   0  0  0  0  0  0  0  0  0  0  0  0
    5.1969   -1.5045    0.0000 C   0  0  0  0  0  0  0  0  0  0  0  0
    3.8991   -0.7525    0.0000 C   0  0  0  0  0  0  0  0  0  0  0  0
    2.5987   -1.5004    0.0000 N   0  0  0  0  0  0  0  0  0  0  0  0
    2.5965   -3.0004    0.0000 C   0  0  0  0  0  0  0  0  0  0  0  0
    3.8943   -3.7525    0.0000 C   0  0  0  0  0  0  0  0  0  0  0  0
    1.2990   -0.7500    0.0000 C   0  0  0  0  0  0  0  0  0  0  0  0
    0.0000   -1.5000    0.0000 C   0  0  0  0  0  0  0  0  0  0  0  0
   -1.2990   -0.7500    0.0000 C   0  0  0  0  0  0  0  0  0  0  0  0
   -1.2990    0.7500    0.0000 C   0  0  0  0  0  0  0  0  0  0  0  0
    0.0000    1.5000    0.0000 C   0  0  0  0  0  0  0  0  0  0  0  0
    1.2990    0.7500    0.0000 C   0  0  0  0  0  0  0  0  0  0  0  0
    9.0720   -9.7724    0.0000 C   0  0  0  0  0  0  0  0  0  0  0  0
    9.0765   -8.2716    0.0000 C   0  0  0  0  0  0  0  0  0  0  0  0
    7.7795   -7.5165    0.0000 N   0  0  0  0  0  0  0  0  0  0  0  0
   10.1178   -7.6751    0.0000 O   0  0  0  0  0  0  0  0  0  0  0  0
    8.3104  -12.0550    0.0000 C   0  0  0  0  0  0  0  0  0  0  0  0
    7.8541  -10.6261    0.0000 N   0  0  0  0  0  0  0  0  0  0  0  0
   10.2812  -10.6384    0.0000 C   0  0  0  0  0  0  0  0  0  0  0  0
    9.8104  -12.0626    0.0000 N   0  0  0  0  0  0  0  0  0  0  0  0
   10.6864  -13.2812    0.0000 C   0  0  0  0  0  0  0  0  0  0  0  0
    7.4212  -13.2608    0.0000 C   0  0  0  0  0  0  0  0  0  0  0  0
    7.7840   -6.0157    0.0000 C   0  0  0  0  0  0  0  0  0  0  0  0
    6.4870   -5.2605    0.0000 C   0  0  0  0  0  0  0  0  0  0  0  0
    6.4915   -3.7597    0.0000 C   0  0  0  0  0  0  0  0  0  0  0  0
   10.1748  -14.6860    0.0000 C   0  0  0  0  0  0  0  0  0  0  0  0
   11.1395  -15.8346    0.0000 C   0  0  0  0  0  0  0  0  0  0  0  0
   12.1643  -13.0151    0.0000 C   0  0  0  0  0  0  0  0  0  0  0  0
   13.1290  -14.1637    0.0000 C   0  0  0  0  0  0  0  0  0  0  0  0
   12.6166  -15.5735    0.0000 C   0  0  0  0  0  0  0  0  0  0  0  0
    2.3383    1.3500    0.0000 C   0  0  0  0  0  0  0  0  0  0  0  0
    0.0000    2.7000    0.0000 C   0  0  0  0  0  0  0  0  0  0  0  0
   11.4221  -10.2666    0.0000 C   0  0  0  0  0  0  0  0  0  0  0  0
   13.5842  -16.7208    0.0000 O   0  0  0  0  0  0  0  0  0  0  0  0
   14.7656  -16.5102    0.0000 C   0  0  0  0  0  0  0  0  0  0  0  0
    5.9296  -13.0942    0.0000 C   0  0  0  0  0  0  0  0  0  0  0  0
    5.2174  -14.0600    0.0000 C   0  0  0  0  0  0  0  0  0  0  0  0
   20.0617   -6.8600    0.0000 Cl  0  0  0  0  0  0  0  0  0  0  0  0
   17.5617   -6.8600    0.0000 Cl  0  0  0  0  0  0  0  0  0  0  0  0
  9 10  2  0
 18 13  1  0
 13 19  2  0
 19 20  1  0
 20 17  1  0
  3  4  1  0
 20 21  1  0
 10 11  1  0
 17 22  1  0
  4  5  1  0
 15 23  1  0
 11 12  2  0
 23 24  1  0
 12  7  1  0
 24 25  1  0
 25  1  1  0
  4  7  1  0
 21 26  2  0
  5  6  1  0
 26 27  1  0
 27 30  2  0
  1  2  1  0
 29 28  2  0
 28 21  1  0
 29 30  1  0
 13 14  1  0
 14 15  1  0
 12 31  1  0
  7  8  2  0
 11 32  1  0
 14 16  2  0
 19 33  1  0
 17 18  2  0
 30 34  1  0
  1  6  1  0
 34 35  1  0
  8  9  1  0
 22 36  1  0
  2  3  1  0
 36 37  1  0
M  END
>  <ACTIVITY>  (23) 
70.8

$$$$

     RDKit          2D

 43 44  0  0  0  0  0  0  0  0999 V2000
    1.2990   -0.7500    0.0000 N   0  0  0  0  0  0  0  0  0  0  0  0
    1.2990    0.7500    0.0000 C   0  0  0  0  0  0  0  0  0  0  0  0
    0.0000    1.5000    0.0000 C   0  0  0  0  0  0  0  0  0  0  0  0
   -1.2990    0.7500    0.0000 N   0  0  0  0  0  0  0  0  0  0  0  0
   -1.2990   -0.7500    0.0000 C   0  0  0  0  0  0  0  0  0  0  0  0
    0.0000   -1.5000    0.0000 C   0  0  0  0  0  0  0  0  0  0  0  0
   -2.5987    1.5004    0.0000 C   0  0  0  0  0  0  0  0  0  0  0  0
   -3.8967    0.7484    0.0000 C   0  0  0  0  0  0  0  0  0  0  0  0
   -5.1969    1.4963    0.0000 C   0  0  0  0  0  0  0  0  0  0  0  0
   -5.1993    2.9963    0.0000 C   0  0  0  0  0  0  0  0  0  0  0  0
   -3.9015    3.7484    0.0000 C   0  0  0  0  0  0  0  0  0  0  0  0
   -2.6012    3.0004    0.0000 C   0  0  0  0  0  0  0  0  0  0  0  0
    5.1873   -7.5117    0.0000 C   0  0  0  0  0  0  0  0  0  0  0  0
    5.1894   -6.0109    0.0000 C   0  0  0  0  0  0  0  0  0  0  0  0
    3.8912   -5.2578    0.0000 N   0  0  0  0  0  0  0  0  0  0  0  0
    6.2297   -5.4127    0.0000 O   0  0  0  0  0  0  0  0  0  0  0  0
    4.4293   -9.7955    0.0000 C   0  0  0  0  0  0  0  0  0  0  0  0
    3.9707   -8.3673    0.0000 N   0  0  0  0  0  0  0  0  0  0  0  0
    6.3978   -8.3758    0.0000 C   0  0  0  0  0  0  0  0  0  0  0  0
    5.9293   -9.8007    0.0000 N   0  0  0  0  0  0  0  0  0  0  0  0
    6.8072  -11.0179    0.0000 C   0  0  0  0  0  0  0  0  0  0  0  0
    3.5430  -11.0066    0.0000 C   0  0  0  0  0  0  0  0  0  0  0  0
    3.8933   -3.7570    0.0000 C   0  0  0  0  0  0  0  0  0  0  0  0
    2.5951   -3.0039    0.0000 C   0  0  0  0  0  0  0  0  0  0  0  0
    2.5973   -1.5031    0.0000 C   0  0  0  0  0  0  0  0  0  0  0  0
    6.2979  -12.4235    0.0000 C   0  0  0  0  0  0  0  0  0  0  0  0
    7.2644  -13.5706    0.0000 C   0  0  0  0  0  0  0  0  0  0  0  0
    8.2847  -10.7495    0.0000 C   0  0  0  0  0  0  0  0  0  0  0  0
    9.2512  -11.8966    0.0000 C   0  0  0  0  0  0  0  0  0  0  0  0
    8.7411  -13.3071    0.0000 C   0  0  0  0  0  0  0  0  0  0  0  0
   -1.5630    3.6021    0.0000 C   0  0  0  0  0  0  0  0  0  0  0  0
   -3.9034    4.9484    0.0000 Cl  0  0  0  0  0  0  0  0  0  0  0  0
    7.5381   -8.0021    0.0000 C   0  0  0  0  0  0  0  0  0  0  0  0
    9.7105  -14.4529    0.0000 O   0  0  0  0  0  0  0  0  0  0  0  0
   10.8915  -14.2404    0.0000 C   0  0  0  0  0  0  0  0  0  0  0  0
    2.0488  -10.9565    0.0000 C   0  0  0  0  0  0  0  0  0  0  0  0
    1.2565  -12.2302    0.0000 C   0  0  0  0  0  0  0  0  0  0  0  0
    1.9634  -13.5532    0.0000 C   0  0  0  0  0  0  0  0  0  0  0  0
    3.4626  -13.6025    0.0000 C   0  0  0  0  0  0  0  0  0  0  0  0
    4.2549  -12.3288    0.0000 C   0  0  0  0  0  0  0  0  0  0  0  0
   18.6876   -4.6019    0.0000 Cl  0  0  0  0  0  0  0  0  0  0  0  0
   16.1876   -4.6019    0.0000 Cl  0  0  0  0  0  0  0  0  0  0  0  0
   13.6876   -4.6019    0.0000 Cl  0  0  0  0  0  0  0  0  0  0  0  0
 19 20  1  0
 20 17  1  0
  3  4  1  0
 20 21  1  0
 10 11  1  0
 17 22  1  0
  4  5  1  0
 15 23  1  0
 11 12  2  0
 23 24  1  0
 12  7  1  0
 24 25  1  0
 25  1  1  0
  4  7  1  0
 21 26  2  0
  5  6  1  0
 26 27  1  0
 27 30  2  0
  1  2  1  0
 29 28  2  0
 28 21  1  0
 29 30  1  0
 13 14  1  0
 14 15  1  0
 12 31  1  0
  7  8  2  0
 11 32  1  0
 14 16  2  0
 19 33  1  0
 17 18  2  0
 30 34  1  0
  1  6  1  0
 34 35  1  0
  8  9  1  0
 22 36  2  0
  2  3  1  0
 36 37  1  0
  9 10  2  0
 37 38  2  0
 18 13  1  0
 38 39  1  0
 13 19  2  0
 39 40  2  0
 40 22  1  0
M  END
>  <ACTIVITY>  (24) 
21

$$$$

     RDKit          2D

 42 44  0  0  0  0  0  0  0  0999 V2000
    1.2990   -0.7500    0.0000 N   0  0  0  0  0  0  0  0  0  0  0  0
    1.2990    0.7500    0.0000 C   0  0  0  0  0  0  0  0  0  0  0  0
    0.0000    1.5000    0.0000 C   0  0  0  0  0  0  0  0  0  0  0  0
   -1.2990    0.7500    0.0000 N   0  0  0  0  0  0  0  0  0  0  0  0
   -1.2990   -0.7500    0.0000 C   0  0  0  0  0  0  0  0  0  0  0  0
    0.0000   -1.5000    0.0000 C   0  0  0  0  0  0  0  0  0  0  0  0
   -2.5987    1.5004    0.0000 C   0  0  0  0  0  0  0  0  0  0  0  0
   -3.8967    0.7484    0.0000 C   0  0  0  0  0  0  0  0  0  0  0  0
   -5.1969    1.4963    0.0000 C   0  0  0  0  0  0  0  0  0  0  0  0
   -5.1993    2.9963    0.0000 C   0  0  0  0  0  0  0  0  0  0  0  0
   -3.9015    3.7484    0.0000 C   0  0  0  0  0  0  0  0  0  0  0  0
   -2.6012    3.0004    0.0000 C   0  0  0  0  0  0  0  0  0  0  0  0
    5.1873   -7.5117    0.0000 C   0  0  0  0  0  0  0  0  0  0  0  0
    5.1894   -6.0109    0.0000 C   0  0  0  0  0  0  0  0  0  0  0  0
    3.8912   -5.2578    0.0000 N   0  0  0  0  0  0  0  0  0  0  0  0
    6.2297   -5.4127    0.0000 O   0  0  0  0  0  0  0  0  0  0  0  0
    4.4293   -9.7955    0.0000 C   0  0  0  0  0  0  0  0  0  0  0  0
    3.9707   -8.3673    0.0000 N   0  0  0  0  0  0  0  0  0  0  0  0
    6.3978   -8.3758    0.0000 C   0  0  0  0  0  0  0  0  0  0  0  0
    5.9293   -9.8007    0.0000 N   0  0  0  0  0  0  0  0  0  0  0  0
    6.8072  -11.0179    0.0000 C   0  0  0  0  0  0  0  0  0  0  0  0
    3.5430  -11.0066    0.0000 C   0  0  0  0  0  0  0  0  0  0  0  0
    3.8933   -3.7570    0.0000 C   0  0  0  0  0  0  0  0  0  0  0  0
    2.5951   -3.0039    0.0000 C   0  0  0  0  0  0  0  0  0  0  0  0
    2.5973   -1.5031    0.0000 C   0  0  0  0  0  0  0  0  0  0  0  0
    6.2979  -12.4235    0.0000 C   0  0  0  0  0  0  0  0  0  0  0  0
    7.2644  -13.5706    0.0000 C   0  0  0  0  0  0  0  0  0  0  0  0
    8.2847  -10.7495    0.0000 C   0  0  0  0  0  0  0  0  0  0  0  0
    9.2512  -11.8966    0.0000 C   0  0  0  0  0  0  0  0  0  0  0  0
    8.7411  -13.3071    0.0000 C   0  0  0  0  0  0  0  0  0  0  0  0
   -1.5630    3.6021    0.0000 C   0  0  0  0  0  0  0  0  0  0  0  0
   -3.9034    4.9484    0.0000 C   0  0  0  0  0  0  0  0  0  0  0  0
    7.5381   -8.0021    0.0000 C   0  0  0  0  0  0  0  0  0  0  0  0
    9.7105  -14.4529    0.0000 O   0  0  0  0  0  0  0  0  0  0  0  0
   10.8915  -14.2404    0.0000 C   0  0  0  0  0  0  0  0  0  0  0  0
    2.0488  -10.9565    0.0000 C   0  0  0  0  0  0  0  0  0  0  0  0
    1.2565  -12.2302    0.0000 C   0  0  0  0  0  0  0  0  0  0  0  0
    1.9634  -13.5532    0.0000 C   0  0  0  0  0  0  0  0  0  0  0  0
    3.4626  -13.6025    0.0000 C   0  0  0  0  0  0  0  0  0  0  0  0
    4.2549  -12.3288    0.0000 C   0  0  0  0  0  0  0  0  0  0  0  0
   16.1876   -4.6019    0.0000 Cl  0  0  0  0  0  0  0  0  0  0  0  0
   13.6876   -4.6019    0.0000 Cl  0  0  0  0  0  0  0  0  0  0  0  0
 19 20  1  0
 20 17  1  0
  3  4  1  0
 20 21  1  0
 10 11  1  0
 17 22  1  0
  4  5  1  0
 15 23  1  0
 11 12  2  0
 23 24  1  0
 12  7  1  0
 24 25  1  0
 25  1  1  0
  4  7  1  0
 21 26  2  0
  5  6  1  0
 26 27  1  0
 27 30  2  0
  1  2  1  0
 29 28  2  0
 28 21  1  0
 29 30  1  0
 13 14  1  0
 14 15  1  0
 12 31  1  0
  7  8  2  0
 11 32  1  0
 14 16  2  0
 19 33  1  0
 17 18  2  0
 30 34  1  0
  1  6  1  0
 34 35  1  0
  8  9  1  0
 22 36  2  0
  2  3  1  0
 36 37  1  0
  9 10  2  0
 37 38  2  0
 18 13  1  0
 38 39  1  0
 13 19  2  0
 39 40  2  0
 40 22  1  0
M  END
>  <ACTIVITY>  (25) 
24

$$$$

     RDKit          2D

 41 43  0  0  0  0  0  0  0  0999 V2000
    1.2990   -0.7500    0.0000 N   0  0  0  0  0  0  0  0  0  0  0  0
    1.2990    0.7500    0.0000 C   0  0  0  0  0  0  0  0  0  0  0  0
    0.0000    1.5000    0.0000 C   0  0  0  0  0  0  0  0  0  0  0  0
   -1.2990    0.7500    0.0000 N   0  0  0  0  0  0  0  0  0  0  0  0
   -1.2990   -0.7500    0.0000 C   0  0  0  0  0  0  0  0  0  0  0  0
    0.0000   -1.5000    0.0000 C   0  0  0  0  0  0  0  0  0  0  0  0
   -2.5987    1.5004    0.0000 C   0  0  0  0  0  0  0  0  0  0  0  0
   -3.8967    0.7484    0.0000 C   0  0  0  0  0  0  0  0  0  0  0  0
   -5.1969    1.4963    0.0000 C   0  0  0  0  0  0  0  0  0  0  0  0
   -5.1993    2.9963    0.0000 C   0  0  0  0  0  0  0  0  0  0  0  0
   -3.9015    3.7484    0.0000 C   0  0  0  0  0  0  0  0  0  0  0  0
   -2.6012    3.0004    0.0000 C   0  0  0  0  0  0  0  0  0  0  0  0
    5.1873   -7.5117    0.0000 C   0  0  0  0  0  0  0  0  0  0  0  0
    5.1894   -6.0109    0.0000 C   0  0  0  0  0  0  0  0  0  0  0  0
    3.8912   -5.2578    0.0000 N   0  0  0  0  0  0  0  0  0  0  0  0
    6.2297   -5.4127    0.0000 O   0  0  0  0  0  0  0  0  0  0  0  0
    4.4293   -9.7955    0.0000 C   0  0  0  0  0  0  0  0  0  0  0  0
    3.9707   -8.3673    0.0000 N   0  0  0  0  0  0  0  0  0  0  0  0
    6.3978   -8.3758    0.0000 C   0  0  0  0  0  0  0  0  0  0  0  0
    5.9293   -9.8007    0.0000 N   0  0  0  0  0  0  0  0  0  0  0  0
    6.8072  -11.0179    0.0000 C   0  0  0  0  0  0  0  0  0  0  0  0
    3.5430  -11.0066    0.0000 C   0  0  0  0  0  0  0  0  0  0  0  0
    3.8933   -3.7570    0.0000 C   0  0  0  0  0  0  0  0  0  0  0  0
    2.5951   -3.0039    0.0000 C   0  0  0  0  0  0  0  0  0  0  0  0
    2.5973   -1.5031    0.0000 C   0  0  0  0  0  0  0  0  0  0  0  0
    8.3017  -10.9783    0.0000 C   0  0  0  0  0  0  0  0  0  0  0  0
    9.0851  -12.2574    0.0000 C   0  0  0  0  0  0  0  0  0  0  0  0
    6.0861  -12.3352    0.0000 C   0  0  0  0  0  0  0  0  0  0  0  0
    6.8696  -13.6144    0.0000 C   0  0  0  0  0  0  0  0  0  0  0  0
    8.3691  -13.5755    0.0000 C   0  0  0  0  0  0  0  0  0  0  0  0
   -1.5630    3.6021    0.0000 C   0  0  0  0  0  0  0  0  0  0  0  0
   -3.9034    4.9484    0.0000 C   0  0  0  0  0  0  0  0  0  0  0  0
    9.1503  -14.8569    0.0000 O   0  0  0  0  0  0  0  0  0  0  0  0
    8.5759  -15.9106    0.0000 C   0  0  0  0  0  0  0  0  0  0  0  0
    4.0425  -12.4157    0.0000 C   0  0  0  0  0  0  0  0  0  0  0  0
    3.0681  -13.5560    0.0000 C   0  0  0  0  0  0  0  0  0  0  0  0
    1.5932  -13.2823    0.0000 C   0  0  0  0  0  0  0  0  0  0  0  0
    1.0929  -11.8682    0.0000 C   0  0  0  0  0  0  0  0  0  0  0  0
    2.0673  -10.7279    0.0000 C   0  0  0  0  0  0  0  0  0  0  0  0
   14.1503   -5.4628    0.0000 Cl  0  0  0  0  0  0  0  0  0  0  0  0
   11.6503   -5.4628    0.0000 Cl  0  0  0  0  0  0  0  0  0  0  0  0
 13 19  2  0
 19 20  1  0
 20 17  1  0
  3  4  1  0
 20 21  1  0
 10 11  1  0
 17 22  1  0
  4  5  1  0
 15 23  1  0
 11 12  2  0
 23 24  1  0
 12  7  1  0
 24 25  1  0
 25  1  1  0
  4  7  1  0
 21 26  2  0
  5  6  1  0
 26 27  1  0
 27 30  2  0
  1  2  1  0
 29 28  2  0
 28 21  1  0
 29 30  1  0
 13 14  1  0
 14 15  1  0
 12 31  1  0
  7  8  2  0
 11 32  1  0
 14 16  2  0
 30 33  1  0
 17 18  2  0
 33 34  1  0
  1  6  1  0
 22 35  2  0
  8  9  1  0
 35 36  1  0
  2  3  1  0
 36 37  2  0
  9 10  2  0
 37 38  1  0
 18 13  1  0
 38 39  2  0
 39 22  1  0
M  END
>  <ACTIVITY>  (26) 
19

$$$$

     RDKit          2D

 37 37  0  0  0  0  0  0  0  0999 V2000
    1.2990   -0.7500    0.0000 N   0  0  0  0  0  0  0  0  0  0  0  0
    0.0000   -1.5000    0.0000 C   0  0  0  0  0  0  0  0  0  0  0  0
   -1.2990   -0.7500    0.0000 C   0  0  0  0  0  0  0  0  0  0  0  0
   -1.2990    0.7500    0.0000 N   0  0  0  0  0  0  0  0  0  0  0  0
    0.0000    1.5000    0.0000 C   0  0  0  0  0  0  0  0  0  0  0  0
    1.2990    0.7500    0.0000 C   0  0  0  0  0  0  0  0  0  0  0  0
   -2.5987    1.5004    0.0000 C   0  0  0  0  0  0  0  0  0  0  0  0
   -3.8967    0.7484    0.0000 C   0  0  0  0  0  0  0  0  0  0  0  0
   -5.1969    1.4963    0.0000 C   0  0  0  0  0  0  0  0  0  0  0  0
   -5.1993    2.9963    0.0000 C   0  0  0  0  0  0  0  0  0  0  0  0
   -3.9015    3.7484    0.0000 C   0  0  0  0  0  0  0  0  0  0  0  0
   -2.6012    3.0004    0.0000 C   0  0  0  0  0  0  0  0  0  0  0  0
    5.1873   -7.5117    0.0000 C   0  0  0  0  0  0  0  0  0  0  0  0
    5.1894   -6.0109    0.0000 C   0  0  0  0  0  0  0  0  0  0  0  0
    3.8912   -5.2578    0.0000 N   0  0  0  0  0  0  0  0  0  0  0  0
    6.2297   -5.4127    0.0000 O   0  0  0  0  0  0  0  0  0  0  0  0
    4.4293   -9.7955    0.0000 C   0  0  0  0  0  0  0  0  0  0  0  0
    3.9707   -8.3673    0.0000 N   0  0  0  0  0  0  0  0  0  0  0  0
    6.3978   -8.3758    0.0000 C   0  0  0  0  0  0  0  0  0  0  0  0
    5.9293   -9.8007    0.0000 N   0  0  0  0  0  0  0  0  0  0  0  0
    6.8072  -11.0179    0.0000 C   0  0  0  0  0  0  0  0  0  0  0  0
    3.7206  -10.7639    0.0000 C   0  0  0  0  0  0  0  0  0  0  0  0
    3.8933   -3.7570    0.0000 C   0  0  0  0  0  0  0  0  0  0  0  0
    2.5951   -3.0039    0.0000 C   0  0  0  0  0  0  0  0  0  0  0  0
    2.5973   -1.5031    0.0000 C   0  0  0  0  0  0  0  0  0  0  0  0
    8.2847  -10.7495    0.0000 C   0  0  0  0  0  0  0  0  0  0  0  0
    9.2512  -11.8966    0.0000 C   0  0  0  0  0  0  0  0  0  0  0  0
    6.2979  -12.4235    0.0000 C   0  0  0  0  0  0  0  0  0  0  0  0
    7.2644  -13.5706    0.0000 C   0  0  0  0  0  0  0  0  0  0  0  0
    8.7411  -13.3072    0.0000 C   0  0  0  0  0  0  0  0  0  0  0  0
   -1.5630    3.6021    0.0000 C   0  0  0  0  0  0  0  0  0  0  0  0
   -3.9034    4.9484    0.0000 Cl  0  0  0  0  0  0  0  0  0  0  0  0
    7.5381   -8.0021    0.0000 C   0  0  0  0  0  0  0  0  0  0  0  0
    5.1165  -12.6339    0.0000 F   0  0  0  0  0  0  0  0  0  0  0  0
   16.7512   -4.1608    0.0000 Cl  0  0  0  0  0  0  0  0  0  0  0  0
   14.2512   -4.1608    0.0000 Cl  0  0  0  0  0  0  0  0  0  0  0  0
   11.7512   -4.1608    0.0000 Cl  0  0  0  0  0  0  0  0  0  0  0  0
  1  6  1  0
  8  9  2  0
  2  3  1  0
  9 10  1  0
 18 13  1  0
 13 19  2  0
 19 20  1  0
 20 17  1  0
  3  4  1  0
 20 21  1  0
 10 11  2  0
 17 22  1  0
  4  5  1  0
 15 23  1  0
 11 12  1  0
 23 24  1  0
 12  7  2  0
 24 25  1  0
 25  1  1  0
  4  7  1  0
 21 26  2  0
  5  6  1  0
 26 27  1  0
 27 30  2  0
  1  2  1  0
 29 28  2  0
 28 21  1  0
 29 30  1  0
 13 14  1  0
 14 15  1  0
 12 31  1  0
  7  8  1  0
 11 32  1  0
 14 16  2  0
 19 33  1  0
 17 18  2  0
 28 34  1  0
M  END
>  <ACTIVITY>  (27) 
40

$$$$

     RDKit          2D

 36 37  0  0  0  0  0  0  0  0999 V2000
    1.2990   -0.7500    0.0000 N   0  0  0  0  0  0  0  0  0  0  0  0
    0.0000   -1.5000    0.0000 C   0  0  0  0  0  0  0  0  0  0  0  0
   -1.2990   -0.7500    0.0000 C   0  0  0  0  0  0  0  0  0  0  0  0
   -1.2990    0.7500    0.0000 N   0  0  0  0  0  0  0  0  0  0  0  0
    0.0000    1.5000    0.0000 C   0  0  0  0  0  0  0  0  0  0  0  0
    1.2990    0.7500    0.0000 C   0  0  0  0  0  0  0  0  0  0  0  0
   -2.5987    1.5004    0.0000 C   0  0  0  0  0  0  0  0  0  0  0  0
   -3.8967    0.7484    0.0000 C   0  0  0  0  0  0  0  0  0  0  0  0
   -5.1969    1.4963    0.0000 C   0  0  0  0  0  0  0  0  0  0  0  0
   -5.1993    2.9963    0.0000 C   0  0  0  0  0  0  0  0  0  0  0  0
   -3.9015    3.7484    0.0000 C   0  0  0  0  0  0  0  0  0  0  0  0
   -2.6012    3.0004    0.0000 C   0  0  0  0  0  0  0  0  0  0  0  0
    5.1873   -7.5117    0.0000 C   0  0  0  0  0  0  0  0  0  0  0  0
    5.1894   -6.0109    0.0000 C   0  0  0  0  0  0  0  0  0  0  0  0
    3.8912   -5.2578    0.0000 N   0  0  0  0  0  0  0  0  0  0  0  0
    6.2297   -5.4127    0.0000 O   0  0  0  0  0  0  0  0  0  0  0  0
    4.4293   -9.7955    0.0000 C   0  0  0  0  0  0  0  0  0  0  0  0
    3.9707   -8.3673    0.0000 N   0  0  0  0  0  0  0  0  0  0  0  0
    6.3978   -8.3758    0.0000 C   0  0  0  0  0  0  0  0  0  0  0  0
    5.9293   -9.8007    0.0000 N   0  0  0  0  0  0  0  0  0  0  0  0
    6.8072  -11.0179    0.0000 C   0  0  0  0  0  0  0  0  0  0  0  0
    3.7206  -10.7639    0.0000 C   0  0  0  0  0  0  0  0  0  0  0  0
    3.8933   -3.7570    0.0000 C   0  0  0  0  0  0  0  0  0  0  0  0
    2.5951   -3.0039    0.0000 C   0  0  0  0  0  0  0  0  0  0  0  0
    2.5973   -1.5031    0.0000 C   0  0  0  0  0  0  0  0  0  0  0  0
    8.2847  -10.7495    0.0000 C   0  0  0  0  0  0  0  0  0  0  0  0
    9.2512  -11.8966    0.0000 C   0  0  0  0  0  0  0  0  0  0  0  0
    6.2979  -12.4235    0.0000 C   0  0  0  0  0  0  0  0  0  0  0  0
    7.2644  -13.5706    0.0000 C   0  0  0  0  0  0  0  0  0  0  0  0
    8.7411  -13.3072    0.0000 C   0  0  0  0  0  0  0  0  0  0  0  0
   -1.5630    3.6021    0.0000 C   0  0  0  0  0  0  0  0  0  0  0  0
   -3.9034    4.9484    0.0000 C   0  0  0  0  0  0  0  0  0  0  0  0
    7.5381   -8.0021    0.0000 C   0  0  0  0  0  0  0  0  0  0  0  0
    5.1165  -12.6339    0.0000 F   0  0  0  0  0  0  0  0  0  0  0  0
   14.2512   -4.1608    0.0000 Cl  0  0  0  0  0  0  0  0  0  0  0  0
   11.7512   -4.1608    0.0000 Cl  0  0  0  0  0  0  0  0  0  0  0  0
  1  6  1  0
  8  9  2  0
  2  3  1  0
  9 10  1  0
 18 13  1  0
 13 19  2  0
 19 20  1  0
 20 17  1  0
  3  4  1  0
 20 21  1  0
 10 11  2  0
 17 22  1  0
  4  5  1  0
 15 23  1  0
 11 12  1  0
 23 24  1  0
 12  7  2  0
 24 25  1  0
 25  1  1  0
  4  7  1  0
 21 26  2  0
  5  6  1  0
 26 27  1  0
 27 30  2  0
  1  2  1  0
 29 28  2  0
 28 21  1  0
 29 30  1  0
 13 14  1  0
 14 15  1  0
 12 31  1  0
  7  8  1  0
 11 32  1  0
 14 16  2  0
 19 33  1  0
 17 18  2  0
 28 34  1  0
M  END
>  <ACTIVITY>  (28) 
64.8

$$$$

     RDKit          2D

 37 37  0  0  0  0  0  0  0  0999 V2000
    1.2990   -0.7500    0.0000 N   0  0  0  0  0  0  0  0  0  0  0  0
    0.0000   -1.5000    0.0000 C   0  0  0  0  0  0  0  0  0  0  0  0
   -1.2990   -0.7500    0.0000 C   0  0  0  0  0  0  0  0  0  0  0  0
   -1.2990    0.7500    0.0000 N   0  0  0  0  0  0  0  0  0  0  0  0
    0.0000    1.5000    0.0000 C   0  0  0  0  0  0  0  0  0  0  0  0
    1.2990    0.7500    0.0000 C   0  0  0  0  0  0  0  0  0  0  0  0
   -2.5987    1.5004    0.0000 C   0  0  0  0  0  0  0  0  0  0  0  0
   -3.8967    0.7484    0.0000 C   0  0  0  0  0  0  0  0  0  0  0  0
   -5.1969    1.4963    0.0000 C   0  0  0  0  0  0  0  0  0  0  0  0
   -5.1993    2.9963    0.0000 C   0  0  0  0  0  0  0  0  0  0  0  0
   -3.9015    3.7484    0.0000 C   0  0  0  0  0  0  0  0  0  0  0  0
   -2.6012    3.0004    0.0000 C   0  0  0  0  0  0  0  0  0  0  0  0
    5.1873   -7.5117    0.0000 C   0  0  0  0  0  0  0  0  0  0  0  0
    5.1894   -6.0109    0.0000 C   0  0  0  0  0  0  0  0  0  0  0  0
    3.8912   -5.2578    0.0000 N   0  0  0  0  0  0  0  0  0  0  0  0
    6.2297   -5.4127    0.0000 O   0  0  0  0  0  0  0  0  0  0  0  0
    4.4293   -9.7955    0.0000 C   0  0  0  0  0  0  0  0  0  0  0  0
    3.9707   -8.3673    0.0000 N   0  0  0  0  0  0  0  0  0  0  0  0
    6.3978   -8.3758    0.0000 C   0  0  0  0  0  0  0  0  0  0  0  0
    5.9293   -9.8007    0.0000 N   0  0  0  0  0  0  0  0  0  0  0  0
    6.8072  -11.0179    0.0000 C   0  0  0  0  0  0  0  0  0  0  0  0
    3.7206  -10.7639    0.0000 C   0  0  0  0  0  0  0  0  0  0  0  0
    3.8933   -3.7570    0.0000 C   0  0  0  0  0  0  0  0  0  0  0  0
    2.5951   -3.0039    0.0000 C   0  0  0  0  0  0  0  0  0  0  0  0
    2.5973   -1.5031    0.0000 C   0  0  0  0  0  0  0  0  0  0  0  0
    6.2979  -12.4235    0.0000 C   0  0  0  0  0  0  0  0  0  0  0  0
    7.2644  -13.5706    0.0000 C   0  0  0  0  0  0  0  0  0  0  0  0
    8.2847  -10.7495    0.0000 C   0  0  0  0  0  0  0  0  0  0  0  0
    9.2512  -11.8966    0.0000 C   0  0  0  0  0  0  0  0  0  0  0  0
    8.7411  -13.3071    0.0000 C   0  0  0  0  0  0  0  0  0  0  0  0
   -1.5630    3.6021    0.0000 C   0  0  0  0  0  0  0  0  0  0  0  0
   -3.9034    4.9484    0.0000 Cl  0  0  0  0  0  0  0  0  0  0  0  0
    7.5381   -8.0021    0.0000 C   0  0  0  0  0  0  0  0  0  0  0  0
    9.5143  -14.2248    0.0000 F   0  0  0  0  0  0  0  0  0  0  0  0
   17.2081   -4.6029    0.0000 Cl  0  0  0  0  0  0  0  0  0  0  0  0
   14.7081   -4.6029    0.0000 Cl  0  0  0  0  0  0  0  0  0  0  0  0
   12.2081   -4.6029    0.0000 Cl  0  0  0  0  0  0  0  0  0  0  0  0
  1  6  1  0
  8  9  2  0
  2  3  1  0
  9 10  1  0
 18 13  1  0
 13 19  2  0
 19 20  1  0
 20 17  1  0
  3  4  1  0
 20 21  1  0
 10 11  2  0
 17 22  1  0
  4  5  1  0
 15 23  1  0
 11 12  1  0
 23 24  1  0
 12  7  2  0
 24 25  1  0
 25  1  1  0
  4  7  1  0
 21 26  2  0
  5  6  1  0
 26 27  1  0
 27 30  2  0
  1  2  1  0
 29 28  2  0
 28 21  1  0
 29 30  1  0
 13 14  1  0
 14 15  1  0
 12 31  1  0
  7  8  1  0
 11 32  1  0
 14 16  2  0
 19 33  1  0
 17 18  2  0
 30 34  1  0
M  END
>  <ACTIVITY>  (29) 
38

$$$$

     RDKit          2D

 36 37  0  0  0  0  0  0  0  0999 V2000
    1.2990   -0.7500    0.0000 N   0  0  0  0  0  0  0  0  0  0  0  0
    0.0000   -1.5000    0.0000 C   0  0  0  0  0  0  0  0  0  0  0  0
   -1.2990   -0.7500    0.0000 C   0  0  0  0  0  0  0  0  0  0  0  0
   -1.2990    0.7500    0.0000 N   0  0  0  0  0  0  0  0  0  0  0  0
    0.0000    1.5000    0.0000 C   0  0  0  0  0  0  0  0  0  0  0  0
    1.2990    0.7500    0.0000 C   0  0  0  0  0  0  0  0  0  0  0  0
   -2.5987    1.5004    0.0000 C   0  0  0  0  0  0  0  0  0  0  0  0
   -3.8967    0.7484    0.0000 C   0  0  0  0  0  0  0  0  0  0  0  0
   -5.1969    1.4963    0.0000 C   0  0  0  0  0  0  0  0  0  0  0  0
   -5.1993    2.9963    0.0000 C   0  0  0  0  0  0  0  0  0  0  0  0
   -3.9015    3.7484    0.0000 C   0  0  0  0  0  0  0  0  0  0  0  0
   -2.6012    3.0004    0.0000 C   0  0  0  0  0  0  0  0  0  0  0  0
    5.1873   -7.5117    0.0000 C   0  0  0  0  0  0  0  0  0  0  0  0
    5.1894   -6.0109    0.0000 C   0  0  0  0  0  0  0  0  0  0  0  0
    3.8912   -5.2578    0.0000 N   0  0  0  0  0  0  0  0  0  0  0  0
    6.2297   -5.4127    0.0000 O   0  0  0  0  0  0  0  0  0  0  0  0
    4.4293   -9.7955    0.0000 C   0  0  0  0  0  0  0  0  0  0  0  0
    3.9707   -8.3673    0.0000 N   0  0  0  0  0  0  0  0  0  0  0  0
    6.3978   -8.3758    0.0000 C   0  0  0  0  0  0  0  0  0  0  0  0
    5.9293   -9.8007    0.0000 N   0  0  0  0  0  0  0  0  0  0  0  0
    6.8072  -11.0179    0.0000 C   0  0  0  0  0  0  0  0  0  0  0  0
    3.7206  -10.7639    0.0000 C   0  0  0  0  0  0  0  0  0  0  0  0
    3.8933   -3.7570    0.0000 C   0  0  0  0  0  0  0  0  0  0  0  0
    2.5951   -3.0039    0.0000 C   0  0  0  0  0  0  0  0  0  0  0  0
    2.5973   -1.5031    0.0000 C   0  0  0  0  0  0  0  0  0  0  0  0
    6.2979  -12.4235    0.0000 C   0  0  0  0  0  0  0  0  0  0  0  0
    7.2644  -13.5706    0.0000 C   0  0  0  0  0  0  0  0  0  0  0  0
    8.2847  -10.7495    0.0000 C   0  0  0  0  0  0  0  0  0  0  0  0
    9.2512  -11.8966    0.0000 C   0  0  0  0  0  0  0  0  0  0  0  0
    8.7411  -13.3071    0.0000 C   0  0  0  0  0  0  0  0  0  0  0  0
   -1.5630    3.6021    0.0000 C   0  0  0  0  0  0  0  0  0  0  0  0
   -3.9034    4.9484    0.0000 C   0  0  0  0  0  0  0  0  0  0  0  0
    7.5381   -8.0021    0.0000 C   0  0  0  0  0  0  0  0  0  0  0  0
    9.5143  -14.2248    0.0000 F   0  0  0  0  0  0  0  0  0  0  0  0
   14.7081   -4.6029    0.0000 Cl  0  0  0  0  0  0  0  0  0  0  0  0
   12.2081   -4.6029    0.0000 Cl  0  0  0  0  0  0  0  0  0  0  0  0
  1  6  1  0
  8  9  2  0
  2  3  1  0
  9 10  1  0
 18 13  1  0
 13 19  2  0
 19 20  1  0
 20 17  1  0
  3  4  1  0
 20 21  1  0
 10 11  2  0
 17 22  1  0
  4  5  1  0
 15 23  1  0
 11 12  1  0
 23 24  1  0
 12  7  2  0
 24 25  1  0
 25  1  1  0
  4  7  1  0
 21 26  2  0
  5  6  1  0
 26 27  1  0
 27 30  2  0
  1  2  1  0
 29 28  2  0
 28 21  1  0
 29 30  1  0
 13 14  1  0
 14 15  1  0
 12 31  1  0
  7  8  1  0
 11 32  1  0
 14 16  2  0
 19 33  1  0
 17 18  2  0
 30 34  1  0
M  END
>  <ACTIVITY>  (30) 
117.9

$$$$

     RDKit          2D

 39 39  0  0  0  0  0  0  0  0999 V2000
    1.2990   -0.7500    0.0000 N   0  0  0  0  0  0  0  0  0  0  0  0
    1.2990    0.7500    0.0000 C   0  0  0  0  0  0  0  0  0  0  0  0
    0.0000    1.5000    0.0000 C   0  0  0  0  0  0  0  0  0  0  0  0
   -1.2990    0.7500    0.0000 N   0  0  0  0  0  0  0  0  0  0  0  0
   -1.2990   -0.7500    0.0000 C   0  0  0  0  0  0  0  0  0  0  0  0
    0.0000   -1.5000    0.0000 C   0  0  0  0  0  0  0  0  0  0  0  0
   -2.5987    1.5004    0.0000 C   0  0  0  0  0  0  0  0  0  0  0  0
   -3.8967    0.7484    0.0000 C   0  0  0  0  0  0  0  0  0  0  0  0
   -5.1969    1.4963    0.0000 C   0  0  0  0  0  0  0  0  0  0  0  0
   -5.1993    2.9963    0.0000 C   0  0  0  0  0  0  0  0  0  0  0  0
   -3.9015    3.7484    0.0000 C   0  0  0  0  0  0  0  0  0  0  0  0
   -2.6012    3.0004    0.0000 C   0  0  0  0  0  0  0  0  0  0  0  0
    5.1873   -7.5117    0.0000 C   0  0  0  0  0  0  0  0  0  0  0  0
    5.1894   -6.0109    0.0000 C   0  0  0  0  0  0  0  0  0  0  0  0
    3.8912   -5.2578    0.0000 N   0  0  0  0  0  0  0  0  0  0  0  0
    6.2297   -5.4127    0.0000 O   0  0  0  0  0  0  0  0  0  0  0  0
    4.4293   -9.7955    0.0000 C   0  0  0  0  0  0  0  0  0  0  0  0
    3.9707   -8.3673    0.0000 N   0  0  0  0  0  0  0  0  0  0  0  0
    6.3978   -8.3758    0.0000 C   0  0  0  0  0  0  0  0  0  0  0  0
    5.9293   -9.8007    0.0000 N   0  0  0  0  0  0  0  0  0  0  0  0
    6.8072  -11.0179    0.0000 C   0  0  0  0  0  0  0  0  0  0  0  0
    3.5419  -11.0027    0.0000 C   0  0  0  0  0  0  0  0  0  0  0  0
    3.8933   -3.7570    0.0000 C   0  0  0  0  0  0  0  0  0  0  0  0
    2.5951   -3.0039    0.0000 C   0  0  0  0  0  0  0  0  0  0  0  0
    2.5973   -1.5031    0.0000 C   0  0  0  0  0  0  0  0  0  0  0  0
    6.2979  -12.4235    0.0000 C   0  0  0  0  0  0  0  0  0  0  0  0
    7.2644  -13.5706    0.0000 C   0  0  0  0  0  0  0  0  0  0  0  0
    8.2847  -10.7495    0.0000 C   0  0  0  0  0  0  0  0  0  0  0  0
    9.2512  -11.8966    0.0000 C   0  0  0  0  0  0  0  0  0  0  0  0
    8.7411  -13.3071    0.0000 C   0  0  0  0  0  0  0  0  0  0  0  0
   -1.5630    3.6021    0.0000 C   0  0  0  0  0  0  0  0  0  0  0  0
   -3.9034    4.9484    0.0000 Cl  0  0  0  0  0  0  0  0  0  0  0  0
    7.5381   -8.0021    0.0000 C   0  0  0  0  0  0  0  0  0  0  0  0
    9.5143  -14.2248    0.0000 F   0  0  0  0  0  0  0  0  0  0  0  0
    2.0501  -10.8385    0.0000 C   0  0  0  0  0  0  0  0  0  0  0  0
    1.3394  -11.8054    0.0000 C   0  0  0  0  0  0  0  0  0  0  0  0
   17.2081   -4.6029    0.0000 Cl  0  0  0  0  0  0  0  0  0  0  0  0
   14.7081   -4.6029    0.0000 Cl  0  0  0  0  0  0  0  0  0  0  0  0
   12.2081   -4.6029    0.0000 Cl  0  0  0  0  0  0  0  0  0  0  0  0
  2  3  1  0
  9 10  2  0
 18 13  1  0
 13 19  2  0
 19 20  1  0
 20 17  1  0
  3  4  1  0
 20 21  1  0
 10 11  1  0
 17 22  1  0
  4  5  1  0
 15 23  1  0
 11 12  2  0
 23 24  1  0
 12  7  1  0
 24 25  1  0
 25  1  1  0
  4  7  1  0
 21 26  2  0
  5  6  1  0
 26 27  1  0
 27 30  2  0
  1  2  1  0
 29 28  2  0
 28 21  1  0
 29 30  1  0
 13 14  1  0
 14 15  1  0
 12 31  1  0
  7  8  2  0
 11 32  1  0
 14 16  2  0
 19 33  1  0
 17 18  2  0
 30 34  1  0
  1  6  1  0
 22 35  1  0
  8  9  1  0
 35 36  1  0
M  END
>  <ACTIVITY>  (31) 
54

$$$$

     RDKit          2D

 38 39  0  0  0  0  0  0  0  0999 V2000
    1.2990   -0.7500    0.0000 N   0  0  0  0  0  0  0  0  0  0  0  0
    1.2990    0.7500    0.0000 C   0  0  0  0  0  0  0  0  0  0  0  0
    0.0000    1.5000    0.0000 C   0  0  0  0  0  0  0  0  0  0  0  0
   -1.2990    0.7500    0.0000 N   0  0  0  0  0  0  0  0  0  0  0  0
   -1.2990   -0.7500    0.0000 C   0  0  0  0  0  0  0  0  0  0  0  0
    0.0000   -1.5000    0.0000 C   0  0  0  0  0  0  0  0  0  0  0  0
   -2.5987    1.5004    0.0000 C   0  0  0  0  0  0  0  0  0  0  0  0
   -3.8967    0.7484    0.0000 C   0  0  0  0  0  0  0  0  0  0  0  0
   -5.1969    1.4963    0.0000 C   0  0  0  0  0  0  0  0  0  0  0  0
   -5.1993    2.9963    0.0000 C   0  0  0  0  0  0  0  0  0  0  0  0
   -3.9015    3.7484    0.0000 C   0  0  0  0  0  0  0  0  0  0  0  0
   -2.6012    3.0004    0.0000 C   0  0  0  0  0  0  0  0  0  0  0  0
    5.1873   -7.5117    0.0000 C   0  0  0  0  0  0  0  0  0  0  0  0
    5.1894   -6.0109    0.0000 C   0  0  0  0  0  0  0  0  0  0  0  0
    3.8912   -5.2578    0.0000 N   0  0  0  0  0  0  0  0  0  0  0  0
    6.2297   -5.4127    0.0000 O   0  0  0  0  0  0  0  0  0  0  0  0
    4.4293   -9.7955    0.0000 C   0  0  0  0  0  0  0  0  0  0  0  0
    3.9707   -8.3673    0.0000 N   0  0  0  0  0  0  0  0  0  0  0  0
    6.3978   -8.3758    0.0000 C   0  0  0  0  0  0  0  0  0  0  0  0
    5.9293   -9.8007    0.0000 N   0  0  0  0  0  0  0  0  0  0  0  0
    6.8072  -11.0179    0.0000 C   0  0  0  0  0  0  0  0  0  0  0  0
    3.5419  -11.0027    0.0000 C   0  0  0  0  0  0  0  0  0  0  0  0
    3.8933   -3.7570    0.0000 C   0  0  0  0  0  0  0  0  0  0  0  0
    2.5951   -3.0039    0.0000 C   0  0  0  0  0  0  0  0  0  0  0  0
    2.5973   -1.5031    0.0000 C   0  0  0  0  0  0  0  0  0  0  0  0
    6.2979  -12.4235    0.0000 C   0  0  0  0  0  0  0  0  0  0  0  0
    7.2644  -13.5706    0.0000 C   0  0  0  0  0  0  0  0  0  0  0  0
    8.2847  -10.7495    0.0000 C   0  0  0  0  0  0  0  0  0  0  0  0
    9.2512  -11.8966    0.0000 C   0  0  0  0  0  0  0  0  0  0  0  0
    8.7411  -13.3071    0.0000 C   0  0  0  0  0  0  0  0  0  0  0  0
   -1.5630    3.6021    0.0000 C   0  0  0  0  0  0  0  0  0  0  0  0
   -3.9034    4.9484    0.0000 C   0  0  0  0  0  0  0  0  0  0  0  0
    7.5381   -8.0021    0.0000 C   0  0  0  0  0  0  0  0  0  0  0  0
    9.5143  -14.2248    0.0000 F   0  0  0  0  0  0  0  0  0  0  0  0
    2.0501  -10.8385    0.0000 C   0  0  0  0  0  0  0  0  0  0  0  0
    1.3394  -11.8054    0.0000 C   0  0  0  0  0  0  0  0  0  0  0  0
   14.7081   -4.6029    0.0000 Cl  0  0  0  0  0  0  0  0  0  0  0  0
   12.2081   -4.6029    0.0000 Cl  0  0  0  0  0  0  0  0  0  0  0  0
  2  3  1  0
  9 10  2  0
 18 13  1  0
 13 19  2  0
 19 20  1  0
 20 17  1  0
  3  4  1  0
 20 21  1  0
 10 11  1  0
 17 22  1  0
  4  5  1  0
 15 23  1  0
 11 12  2  0
 23 24  1  0
 12  7  1  0
 24 25  1  0
 25  1  1  0
  4  7  1  0
 21 26  2  0
  5  6  1  0
 26 27  1  0
 27 30  2  0
  1  2  1  0
 29 28  2  0
 28 21  1  0
 29 30  1  0
 13 14  1  0
 14 15  1  0
 12 31  1  0
  7  8  2  0
 11 32  1  0
 14 16  2  0
 19 33  1  0
 17 18  2  0
 30 34  1  0
  1  6  1  0
 22 35  1  0
  8  9  1  0
 35 36  1  0
M  END
>  <ACTIVITY>  (32) 
31

$$$$

     RDKit          2D

 37 38  0  0  0  0  0  0  0  0999 V2000
    5.1945   -3.0045    0.0000 N   0  0  0  0  0  0  0  0  0  0  0  0
    5.1969   -1.5045    0.0000 C   0  0  0  0  0  0  0  0  0  0  0  0
    3.8991   -0.7525    0.0000 C   0  0  0  0  0  0  0  0  0  0  0  0
    2.5987   -1.5004    0.0000 N   0  0  0  0  0  0  0  0  0  0  0  0
    2.5965   -3.0004    0.0000 C   0  0  0  0  0  0  0  0  0  0  0  0
    3.8943   -3.7525    0.0000 C   0  0  0  0  0  0  0  0  0  0  0  0
    1.2990   -0.7500    0.0000 C   0  0  0  0  0  0  0  0  0  0  0  0
    0.0000   -1.5000    0.0000 C   0  0  0  0  0  0  0  0  0  0  0  0
   -1.2990   -0.7500    0.0000 C   0  0  0  0  0  0  0  0  0  0  0  0
   -1.2990    0.7500    0.0000 C   0  0  0  0  0  0  0  0  0  0  0  0
    0.0000    1.5000    0.0000 C   0  0  0  0  0  0  0  0  0  0  0  0
    1.2990    0.7500    0.0000 C   0  0  0  0  0  0  0  0  0  0  0  0
    9.0720   -9.7724    0.0000 C   0  0  0  0  0  0  0  0  0  0  0  0
    9.0765   -8.2716    0.0000 C   0  0  0  0  0  0  0  0  0  0  0  0
    7.7795   -7.5165    0.0000 N   0  0  0  0  0  0  0  0  0  0  0  0
   10.1178   -7.6751    0.0000 O   0  0  0  0  0  0  0  0  0  0  0  0
    9.8104  -12.0626    0.0000 C   0  0  0  0  0  0  0  0  0  0  0  0
   10.2812  -10.6384    0.0000 N   0  0  0  0  0  0  0  0  0  0  0  0
    7.8541  -10.6261    0.0000 C   0  0  0  0  0  0  0  0  0  0  0  0
    8.3104  -12.0550    0.0000 N   0  0  0  0  0  0  0  0  0  0  0  0
    7.4222  -13.2647    0.0000 C   0  0  0  0  0  0  0  0  0  0  0  0
   10.6874  -13.2773    0.0000 C   0  0  0  0  0  0  0  0  0  0  0  0
    7.7840   -6.0157    0.0000 C   0  0  0  0  0  0  0  0  0  0  0  0
    6.4870   -5.2605    0.0000 C   0  0  0  0  0  0  0  0  0  0  0  0
    6.4915   -3.7597    0.0000 C   0  0  0  0  0  0  0  0  0  0  0  0
    7.9195  -14.6746    0.0000 C   0  0  0  0  0  0  0  0  0  0  0  0
    6.9432  -15.8134    0.0000 C   0  0  0  0  0  0  0  0  0  0  0  0
    5.9470  -12.9836    0.0000 C   0  0  0  0  0  0  0  0  0  0  0  0
    4.9707  -14.1224    0.0000 C   0  0  0  0  0  0  0  0  0  0  0  0
    5.4688  -15.5373    0.0000 C   0  0  0  0  0  0  0  0  0  0  0  0
    2.3383    1.3500    0.0000 C   0  0  0  0  0  0  0  0  0  0  0  0
    0.0000    2.7000    0.0000 C   0  0  0  0  0  0  0  0  0  0  0  0
    4.6878  -16.4484    0.0000 F   0  0  0  0  0  0  0  0  0  0  0  0
   12.1806  -13.1259    0.0000 C   0  0  0  0  0  0  0  0  0  0  0  0
   12.8830  -14.0988    0.0000 C   0  0  0  0  0  0  0  0  0  0  0  0
   18.0591   -6.8380    0.0000 Cl  0  0  0  0  0  0  0  0  0  0  0  0
   15.5591   -6.8380    0.0000 Cl  0  0  0  0  0  0  0  0  0  0  0  0
  8  9  2  0
  2  3  1  0
  9 10  1  0
 18 13  1  0
 13 19  2  0
 19 20  1  0
 20 17  1  0
  3  4  1  0
 20 21  1  0
 10 11  2  0
 17 22  1  0
  4  5  1  0
 15 23  1  0
 11 12  1  0
 23 24  1  0
 12  7  2  0
 24 25  1  0
 25  1  1  0
  4  7  1  0
 21 26  2  0
  5  6  1  0
 26 27  1  0
 27 30  2  0
  1  2  1  0
 29 28  2  0
 28 21  1  0
 29 30  1  0
 13 14  1  0
 14 15  1  0
 12 31  1  0
  7  8  1  0
 11 32  1  0
 14 16  2  0
 30 33  1  0
 17 18  2  0
 22 34  1  0
  1  6  1  0
 34 35  1  0
M  END
>  <ACTIVITY>  (33) 
141

$$$$

     RDKit          2D

 42 43  0  0  0  0  0  0  0  0999 V2000
    1.2990   -0.7500    0.0000 N   0  0  0  0  0  0  0  0  0  0  0  0
    1.2990    0.7500    0.0000 C   0  0  0  0  0  0  0  0  0  0  0  0
    0.0000    1.5000    0.0000 C   0  0  0  0  0  0  0  0  0  0  0  0
   -1.2990    0.7500    0.0000 N   0  0  0  0  0  0  0  0  0  0  0  0
   -1.2990   -0.7500    0.0000 C   0  0  0  0  0  0  0  0  0  0  0  0
    0.0000   -1.5000    0.0000 C   0  0  0  0  0  0  0  0  0  0  0  0
   -2.5987    1.5004    0.0000 C   0  0  0  0  0  0  0  0  0  0  0  0
   -3.8967    0.7484    0.0000 C   0  0  0  0  0  0  0  0  0  0  0  0
   -5.1969    1.4963    0.0000 C   0  0  0  0  0  0  0  0  0  0  0  0
   -5.1993    2.9963    0.0000 C   0  0  0  0  0  0  0  0  0  0  0  0
   -3.9015    3.7484    0.0000 C   0  0  0  0  0  0  0  0  0  0  0  0
   -2.6012    3.0004    0.0000 C   0  0  0  0  0  0  0  0  0  0  0  0
    5.1873   -7.5117    0.0000 C   0  0  0  0  0  0  0  0  0  0  0  0
    5.1894   -6.0109    0.0000 C   0  0  0  0  0  0  0  0  0  0  0  0
    3.8912   -5.2578    0.0000 N   0  0  0  0  0  0  0  0  0  0  0  0
    6.2297   -5.4127    0.0000 O   0  0  0  0  0  0  0  0  0  0  0  0
    4.4293   -9.7955    0.0000 C   0  0  0  0  0  0  0  0  0  0  0  0
    3.9707   -8.3673    0.0000 N   0  0  0  0  0  0  0  0  0  0  0  0
    6.3978   -8.3758    0.0000 C   0  0  0  0  0  0  0  0  0  0  0  0
    5.9293   -9.8007    0.0000 N   0  0  0  0  0  0  0  0  0  0  0  0
    6.8072  -11.0179    0.0000 C   0  0  0  0  0  0  0  0  0  0  0  0
    3.5430  -11.0066    0.0000 C   0  0  0  0  0  0  0  0  0  0  0  0
    3.8933   -3.7570    0.0000 C   0  0  0  0  0  0  0  0  0  0  0  0
    2.5951   -3.0039    0.0000 C   0  0  0  0  0  0  0  0  0  0  0  0
    2.5973   -1.5031    0.0000 C   0  0  0  0  0  0  0  0  0  0  0  0
    8.3017  -10.9783    0.0000 C   0  0  0  0  0  0  0  0  0  0  0  0
    9.0851  -12.2574    0.0000 C   0  0  0  0  0  0  0  0  0  0  0  0
    6.0861  -12.3352    0.0000 C   0  0  0  0  0  0  0  0  0  0  0  0
    6.8696  -13.6144    0.0000 C   0  0  0  0  0  0  0  0  0  0  0  0
    8.3691  -13.5755    0.0000 C   0  0  0  0  0  0  0  0  0  0  0  0
   -1.5630    3.6021    0.0000 C   0  0  0  0  0  0  0  0  0  0  0  0
   -3.9034    4.9484    0.0000 Cl  0  0  0  0  0  0  0  0  0  0  0  0
    7.5381   -8.0021    0.0000 C   0  0  0  0  0  0  0  0  0  0  0  0
    8.9958  -14.5988    0.0000 F   0  0  0  0  0  0  0  0  0  0  0  0
    4.0425  -12.4157    0.0000 C   0  0  0  0  0  0  0  0  0  0  0  0
    3.0681  -13.5560    0.0000 C   0  0  0  0  0  0  0  0  0  0  0  0
    1.5932  -13.2823    0.0000 C   0  0  0  0  0  0  0  0  0  0  0  0
    1.0929  -11.8682    0.0000 C   0  0  0  0  0  0  0  0  0  0  0  0
    2.0673  -10.7279    0.0000 C   0  0  0  0  0  0  0  0  0  0  0  0
   16.6529   -4.8031    0.0000 Cl  0  0  0  0  0  0  0  0  0  0  0  0
   14.1529   -4.8031    0.0000 Cl  0  0  0  0  0  0  0  0  0  0  0  0
   11.6529   -4.8031    0.0000 Cl  0  0  0  0  0  0  0  0  0  0  0  0
 13 19  2  0
 19 20  1  0
 20 17  1  0
  3  4  1  0
 20 21  1  0
 10 11  1  0
 17 22  1  0
  4  5  1  0
 15 23  1  0
 11 12  2  0
 23 24  1  0
 12  7  1  0
 24 25  1  0
 25  1  1  0
  4  7  1  0
 21 26  2  0
  5  6  1  0
 26 27  1  0
 27 30  2  0
  1  2  1  0
 29 28  2  0
 28 21  1  0
 29 30  1  0
 13 14  1  0
 14 15  1  0
 12 31  1  0
  7  8  2  0
 11 32  1  0
 14 16  2  0
 19 33  1  0
 17 18  2  0
 30 34  1  0
  1  6  1  0
 22 35  2  0
  8  9  1  0
 35 36  1  0
  2  3  1  0
 36 37  2  0
  9 10  2  0
 37 38  1  0
 18 13  1  0
 38 39  2  0
 39 22  1  0
M  END
>  <ACTIVITY>  (34) 
12.2

$$$$

     RDKit          2D

 41 43  0  0  0  0  0  0  0  0999 V2000
    1.2990   -0.7500    0.0000 N   0  0  0  0  0  0  0  0  0  0  0  0
    1.2990    0.7500    0.0000 C   0  0  0  0  0  0  0  0  0  0  0  0
    0.0000    1.5000    0.0000 C   0  0  0  0  0  0  0  0  0  0  0  0
   -1.2990    0.7500    0.0000 N   0  0  0  0  0  0  0  0  0  0  0  0
   -1.2990   -0.7500    0.0000 C   0  0  0  0  0  0  0  0  0  0  0  0
    0.0000   -1.5000    0.0000 C   0  0  0  0  0  0  0  0  0  0  0  0
   -2.5987    1.5004    0.0000 C   0  0  0  0  0  0  0  0  0  0  0  0
   -3.8967    0.7484    0.0000 C   0  0  0  0  0  0  0  0  0  0  0  0
   -5.1969    1.4963    0.0000 C   0  0  0  0  0  0  0  0  0  0  0  0
   -5.1993    2.9963    0.0000 C   0  0  0  0  0  0  0  0  0  0  0  0
   -3.9015    3.7484    0.0000 C   0  0  0  0  0  0  0  0  0  0  0  0
   -2.6012    3.0004    0.0000 C   0  0  0  0  0  0  0  0  0  0  0  0
    5.1873   -7.5117    0.0000 C   0  0  0  0  0  0  0  0  0  0  0  0
    5.1894   -6.0109    0.0000 C   0  0  0  0  0  0  0  0  0  0  0  0
    3.8912   -5.2578    0.0000 N   0  0  0  0  0  0  0  0  0  0  0  0
    6.2297   -5.4127    0.0000 O   0  0  0  0  0  0  0  0  0  0  0  0
    4.4293   -9.7955    0.0000 C   0  0  0  0  0  0  0  0  0  0  0  0
    3.9707   -8.3673    0.0000 N   0  0  0  0  0  0  0  0  0  0  0  0
    6.3978   -8.3758    0.0000 C   0  0  0  0  0  0  0  0  0  0  0  0
    5.9293   -9.8007    0.0000 N   0  0  0  0  0  0  0  0  0  0  0  0
    6.8072  -11.0179    0.0000 C   0  0  0  0  0  0  0  0  0  0  0  0
    3.5430  -11.0066    0.0000 C   0  0  0  0  0  0  0  0  0  0  0  0
    3.8933   -3.7570    0.0000 C   0  0  0  0  0  0  0  0  0  0  0  0
    2.5951   -3.0039    0.0000 C   0  0  0  0  0  0  0  0  0  0  0  0
    2.5973   -1.5031    0.0000 C   0  0  0  0  0  0  0  0  0  0  0  0
    8.3017  -10.9783    0.0000 C   0  0  0  0  0  0  0  0  0  0  0  0
    9.0851  -12.2574    0.0000 C   0  0  0  0  0  0  0  0  0  0  0  0
    6.0861  -12.3352    0.0000 C   0  0  0  0  0  0  0  0  0  0  0  0
    6.8696  -13.6144    0.0000 C   0  0  0  0  0  0  0  0  0  0  0  0
    8.3691  -13.5755    0.0000 C   0  0  0  0  0  0  0  0  0  0  0  0
   -1.5630    3.6021    0.0000 C   0  0  0  0  0  0  0  0  0  0  0  0
   -3.9034    4.9484    0.0000 C   0  0  0  0  0  0  0  0  0  0  0  0
    7.5381   -8.0021    0.0000 C   0  0  0  0  0  0  0  0  0  0  0  0
    8.9958  -14.5988    0.0000 F   0  0  0  0  0  0  0  0  0  0  0  0
    4.0425  -12.4157    0.0000 C   0  0  0  0  0  0  0  0  0  0  0  0
    3.0681  -13.5560    0.0000 C   0  0  0  0  0  0  0  0  0  0  0  0
    1.5932  -13.2823    0.0000 C   0  0  0  0  0  0  0  0  0  0  0  0
    1.0929  -11.8682    0.0000 C   0  0  0  0  0  0  0  0  0  0  0  0
    2.0673  -10.7279    0.0000 C   0  0  0  0  0  0  0  0  0  0  0  0
   14.1529   -4.8031    0.0000 Cl  0  0  0  0  0  0  0  0  0  0  0  0
   11.6529   -4.8031    0.0000 Cl  0  0  0  0  0  0  0  0  0  0  0  0
 13 19  2  0
 19 20  1  0
 20 17  1  0
  3  4  1  0
 20 21  1  0
 10 11  1  0
 17 22  1  0
  4  5  1  0
 15 23  1  0
 11 12  2  0
 23 24  1  0
 12  7  1  0
 24 25  1  0
 25  1  1  0
  4  7  1  0
 21 26  2  0
  5  6  1  0
 26 27  1  0
 27 30  2  0
  1  2  1  0
 29 28  2  0
 28 21  1  0
 29 30  1  0
 13 14  1  0
 14 15  1  0
 12 31  1  0
  7  8  2  0
 11 32  1  0
 14 16  2  0
 19 33  1  0
 17 18  2  0
 30 34  1  0
  1  6  1  0
 22 35  2  0
  8  9  1  0
 35 36  1  0
  2  3  1  0
 36 37  2  0
  9 10  2  0
 37 38  1  0
 18 13  1  0
 38 39  2  0
 39 22  1  0
M  END
>  <ACTIVITY>  (35) 
27.8

$$$$

     RDKit          2D

 38 37  0  0  0  0  0  0  0  0999 V2000
    1.2990   -0.7500    0.0000 N   0  0  0  0  0  0  0  0  0  0  0  0
    0.0000   -1.5000    0.0000 C   0  0  0  0  0  0  0  0  0  0  0  0
   -1.2990   -0.7500    0.0000 C   0  0  0  0  0  0  0  0  0  0  0  0
   -1.2990    0.7500    0.0000 N   0  0  0  0  0  0  0  0  0  0  0  0
    0.0000    1.5000    0.0000 C   0  0  0  0  0  0  0  0  0  0  0  0
    1.2990    0.7500    0.0000 C   0  0  0  0  0  0  0  0  0  0  0  0
   -2.5987    1.5004    0.0000 C   0  0  0  0  0  0  0  0  0  0  0  0
   -3.8967    0.7484    0.0000 C   0  0  0  0  0  0  0  0  0  0  0  0
   -5.1969    1.4963    0.0000 C   0  0  0  0  0  0  0  0  0  0  0  0
   -5.1993    2.9963    0.0000 C   0  0  0  0  0  0  0  0  0  0  0  0
   -3.9015    3.7484    0.0000 C   0  0  0  0  0  0  0  0  0  0  0  0
   -2.6012    3.0004    0.0000 C   0  0  0  0  0  0  0  0  0  0  0  0
    5.1873   -7.5117    0.0000 C   0  0  0  0  0  0  0  0  0  0  0  0
    5.1894   -6.0109    0.0000 C   0  0  0  0  0  0  0  0  0  0  0  0
    3.8912   -5.2578    0.0000 N   0  0  0  0  0  0  0  0  0  0  0  0
    6.2297   -5.4127    0.0000 O   0  0  0  0  0  0  0  0  0  0  0  0
    4.4293   -9.7955    0.0000 C   0  0  0  0  0  0  0  0  0  0  0  0
    3.9707   -8.3673    0.0000 N   0  0  0  0  0  0  0  0  0  0  0  0
    6.3978   -8.3758    0.0000 C   0  0  0  0  0  0  0  0  0  0  0  0
    5.9293   -9.8007    0.0000 N   0  0  0  0  0  0  0  0  0  0  0  0
    6.8072  -11.0179    0.0000 C   0  0  0  0  0  0  0  0  0  0  0  0
    3.7206  -10.7639    0.0000 C   0  0  0  0  0  0  0  0  0  0  0  0
    3.8933   -3.7570    0.0000 C   0  0  0  0  0  0  0  0  0  0  0  0
    2.5951   -3.0039    0.0000 C   0  0  0  0  0  0  0  0  0  0  0  0
    2.5973   -1.5031    0.0000 C   0  0  0  0  0  0  0  0  0  0  0  0
    8.2847  -10.7495    0.0000 C   0  0  0  0  0  0  0  0  0  0  0  0
    9.2512  -11.8966    0.0000 C   0  0  0  0  0  0  0  0  0  0  0  0
    6.2979  -12.4235    0.0000 C   0  0  0  0  0  0  0  0  0  0  0  0
    7.2644  -13.5706    0.0000 C   0  0  0  0  0  0  0  0  0  0  0  0
    8.7411  -13.3072    0.0000 C   0  0  0  0  0  0  0  0  0  0  0  0
   -1.5630    3.6021    0.0000 C   0  0  0  0  0  0  0  0  0  0  0  0
   -3.9034    4.9484    0.0000 Cl  0  0  0  0  0  0  0  0  0  0  0  0
    7.5381   -8.0021    0.0000 C   0  0  0  0  0  0  0  0  0  0  0  0
    5.1165  -12.6339    0.0000 Cl  0  0  0  0  0  0  0  0  0  0  0  0
   19.2512   -4.1608    0.0000 Cl  0  0  0  0  0  0  0  0  0  0  0  0
   16.7512   -4.1608    0.0000 Cl  0  0  0  0  0  0  0  0  0  0  0  0
   14.2512   -4.1608    0.0000 Cl  0  0  0  0  0  0  0  0  0  0  0  0
   11.7512   -4.1608    0.0000 Cl  0  0  0  0  0  0  0  0  0  0  0  0
  1  6  1  0
  8  9  2  0
  2  3  1  0
  9 10  1  0
 18 13  1  0
 13 19  2  0
 19 20  1  0
 20 17  1  0
  3  4  1  0
 20 21  1  0
 10 11  2  0
 17 22  1  0
  4  5  1  0
 15 23  1  0
 11 12  1  0
 23 24  1  0
 12  7  2  0
 24 25  1  0
 25  1  1  0
  4  7  1  0
 21 26  2  0
  5  6  1  0
 26 27  1  0
 27 30  2  0
  1  2  1  0
 29 28  2  0
 28 21  1  0
 29 30  1  0
 13 14  1  0
 14 15  1  0
 12 31  1  0
  7  8  1  0
 11 32  1  0
 14 16  2  0
 19 33  1  0
 17 18  2  0
 28 34  1  0
M  END
>  <ACTIVITY>  (36) 
29

$$$$

     RDKit          2D

 37 37  0  0  0  0  0  0  0  0999 V2000
    1.2990   -0.7500    0.0000 N   0  0  0  0  0  0  0  0  0  0  0  0
    0.0000   -1.5000    0.0000 C   0  0  0  0  0  0  0  0  0  0  0  0
   -1.2990   -0.7500    0.0000 C   0  0  0  0  0  0  0  0  0  0  0  0
   -1.2990    0.7500    0.0000 N   0  0  0  0  0  0  0  0  0  0  0  0
    0.0000    1.5000    0.0000 C   0  0  0  0  0  0  0  0  0  0  0  0
    1.2990    0.7500    0.0000 C   0  0  0  0  0  0  0  0  0  0  0  0
   -2.5987    1.5004    0.0000 C   0  0  0  0  0  0  0  0  0  0  0  0
   -3.8967    0.7484    0.0000 C   0  0  0  0  0  0  0  0  0  0  0  0
   -5.1969    1.4963    0.0000 C   0  0  0  0  0  0  0  0  0  0  0  0
   -5.1993    2.9963    0.0000 C   0  0  0  0  0  0  0  0  0  0  0  0
   -3.9015    3.7484    0.0000 C   0  0  0  0  0  0  0  0  0  0  0  0
   -2.6012    3.0004    0.0000 C   0  0  0  0  0  0  0  0  0  0  0  0
    5.1873   -7.5117    0.0000 C   0  0  0  0  0  0  0  0  0  0  0  0
    5.1894   -6.0109    0.0000 C   0  0  0  0  0  0  0  0  0  0  0  0
    3.8912   -5.2578    0.0000 N   0  0  0  0  0  0  0  0  0  0  0  0
    6.2297   -5.4127    0.0000 O   0  0  0  0  0  0  0  0  0  0  0  0
    4.4293   -9.7955    0.0000 C   0  0  0  0  0  0  0  0  0  0  0  0
    3.9707   -8.3673    0.0000 N   0  0  0  0  0  0  0  0  0  0  0  0
    6.3978   -8.3758    0.0000 C   0  0  0  0  0  0  0  0  0  0  0  0
    5.9293   -9.8007    0.0000 N   0  0  0  0  0  0  0  0  0  0  0  0
    6.8072  -11.0179    0.0000 C   0  0  0  0  0  0  0  0  0  0  0  0
    3.7206  -10.7639    0.0000 C   0  0  0  0  0  0  0  0  0  0  0  0
    3.8933   -3.7570    0.0000 C   0  0  0  0  0  0  0  0  0  0  0  0
    2.5951   -3.0039    0.0000 C   0  0  0  0  0  0  0  0  0  0  0  0
    2.5973   -1.5031    0.0000 C   0  0  0  0  0  0  0  0  0  0  0  0
    8.2847  -10.7495    0.0000 C   0  0  0  0  0  0  0  0  0  0  0  0
    9.2512  -11.8966    0.0000 C   0  0  0  0  0  0  0  0  0  0  0  0
    6.2979  -12.4235    0.0000 C   0  0  0  0  0  0  0  0  0  0  0  0
    7.2644  -13.5706    0.0000 C   0  0  0  0  0  0  0  0  0  0  0  0
    8.7411  -13.3072    0.0000 C   0  0  0  0  0  0  0  0  0  0  0  0
   -1.5630    3.6021    0.0000 C   0  0  0  0  0  0  0  0  0  0  0  0
   -3.9034    4.9484    0.0000 C   0  0  0  0  0  0  0  0  0  0  0  0
    7.5381   -8.0021    0.0000 C   0  0  0  0  0  0  0  0  0  0  0  0
    5.1165  -12.6339    0.0000 Cl  0  0  0  0  0  0  0  0  0  0  0  0
   16.7512   -4.1608    0.0000 Cl  0  0  0  0  0  0  0  0  0  0  0  0
   14.2512   -4.1608    0.0000 Cl  0  0  0  0  0  0  0  0  0  0  0  0
   11.7512   -4.1608    0.0000 Cl  0  0  0  0  0  0  0  0  0  0  0  0
  1  6  1  0
  8  9  2  0
  2  3  1  0
  9 10  1  0
 18 13  1  0
 13 19  2  0
 19 20  1  0
 20 17  1  0
  3  4  1  0
 20 21  1  0
 10 11  2  0
 17 22  1  0
  4  5  1  0
 15 23  1  0
 11 12  1  0
 23 24  1  0
 12  7  2  0
 24 25  1  0
 25  1  1  0
  4  7  1  0
 21 26  2  0
  5  6  1  0
 26 27  1  0
 27 30  2  0
  1  2  1  0
 29 28  2  0
 28 21  1  0
 29 30  1  0
 13 14  1  0
 14 15  1  0
 12 31  1  0
  7  8  1  0
 11 32  1  0
 14 16  2  0
 19 33  1  0
 17 18  2  0
 28 34  1  0
M  END
>  <ACTIVITY>  (37) 
80

$$$$

     RDKit          2D

 39 39  0  0  0  0  0  0  0  0999 V2000
    1.2990   -0.7500    0.0000 N   0  0  0  0  0  0  0  0  0  0  0  0
    1.2990    0.7500    0.0000 C   0  0  0  0  0  0  0  0  0  0  0  0
    0.0000    1.5000    0.0000 C   0  0  0  0  0  0  0  0  0  0  0  0
   -1.2990    0.7500    0.0000 N   0  0  0  0  0  0  0  0  0  0  0  0
   -1.2990   -0.7500    0.0000 C   0  0  0  0  0  0  0  0  0  0  0  0
    0.0000   -1.5000    0.0000 C   0  0  0  0  0  0  0  0  0  0  0  0
   -2.5987    1.5004    0.0000 C   0  0  0  0  0  0  0  0  0  0  0  0
   -3.8967    0.7484    0.0000 C   0  0  0  0  0  0  0  0  0  0  0  0
   -5.1969    1.4963    0.0000 C   0  0  0  0  0  0  0  0  0  0  0  0
   -5.1993    2.9963    0.0000 C   0  0  0  0  0  0  0  0  0  0  0  0
   -3.9015    3.7484    0.0000 C   0  0  0  0  0  0  0  0  0  0  0  0
   -2.6012    3.0004    0.0000 C   0  0  0  0  0  0  0  0  0  0  0  0
    5.1873   -7.5117    0.0000 C   0  0  0  0  0  0  0  0  0  0  0  0
    5.1894   -6.0109    0.0000 C   0  0  0  0  0  0  0  0  0  0  0  0
    3.8912   -5.2578    0.0000 N   0  0  0  0  0  0  0  0  0  0  0  0
    6.2297   -5.4127    0.0000 O   0  0  0  0  0  0  0  0  0  0  0  0
    4.4293   -9.7955    0.0000 C   0  0  0  0  0  0  0  0  0  0  0  0
    3.9707   -8.3673    0.0000 N   0  0  0  0  0  0  0  0  0  0  0  0
    6.3978   -8.3758    0.0000 C   0  0  0  0  0  0  0  0  0  0  0  0
    5.9293   -9.8007    0.0000 N   0  0  0  0  0  0  0  0  0  0  0  0
    6.8072  -11.0179    0.0000 C   0  0  0  0  0  0  0  0  0  0  0  0
    3.5419  -11.0027    0.0000 C   0  0  0  0  0  0  0  0  0  0  0  0
    3.8933   -3.7570    0.0000 C   0  0  0  0  0  0  0  0  0  0  0  0
    2.5951   -3.0039    0.0000 C   0  0  0  0  0  0  0  0  0  0  0  0
    2.5973   -1.5031    0.0000 C   0  0  0  0  0  0  0  0  0  0  0  0
    8.2847  -10.7495    0.0000 C   0  0  0  0  0  0  0  0  0  0  0  0
    9.2512  -11.8966    0.0000 C   0  0  0  0  0  0  0  0  0  0  0  0
    6.2979  -12.4235    0.0000 C   0  0  0  0  0  0  0  0  0  0  0  0
    7.2644  -13.5706    0.0000 C   0  0  0  0  0  0  0  0  0  0  0  0
    8.7411  -13.3072    0.0000 C   0  0  0  0  0  0  0  0  0  0  0  0
   -1.5630    3.6021    0.0000 C   0  0  0  0  0  0  0  0  0  0  0  0
   -3.9034    4.9484    0.0000 C   0  0  0  0  0  0  0  0  0  0  0  0
    7.5381   -8.0021    0.0000 C   0  0  0  0  0  0  0  0  0  0  0  0
    5.1165  -12.6339    0.0000 Cl  0  0  0  0  0  0  0  0  0  0  0  0
    2.0501  -10.8385    0.0000 C   0  0  0  0  0  0  0  0  0  0  0  0
    1.3394  -11.8054    0.0000 C   0  0  0  0  0  0  0  0  0  0  0  0
   16.7512   -4.1608    0.0000 Cl  0  0  0  0  0  0  0  0  0  0  0  0
   14.2512   -4.1608    0.0000 Cl  0  0  0  0  0  0  0  0  0  0  0  0
   11.7512   -4.1608    0.0000 Cl  0  0  0  0  0  0  0  0  0  0  0  0
  2  3  1  0
  9 10  2  0
 18 13  1  0
 13 19  2  0
 19 20  1  0
 20 17  1  0
  3  4  1  0
 20 21  1  0
 10 11  1  0
 17 22  1  0
  4  5  1  0
 15 23  1  0
 11 12  2  0
 23 24  1  0
 12  7  1  0
 24 25  1  0
 25  1  1  0
  4  7  1  0
 21 26  2  0
  5  6  1  0
 26 27  1  0
 27 30  2  0
  1  2  1  0
 29 28  2  0
 28 21  1  0
 29 30  1  0
 13 14  1  0
 14 15  1  0
 12 31  1  0
  7  8  2  0
 11 32  1  0
 14 16  2  0
 19 33  1  0
 17 18  2  0
 28 34  1  0
  1  6  1  0
 22 35  1  0
  8  9  1  0
 35 36  1  0
M  END
>  <ACTIVITY>  (38) 
90

$$$$

     RDKit          2D

 37 37  0  0  0  0  0  0  0  0999 V2000
    1.2990   -0.7500    0.0000 N   0  0  0  0  0  0  0  0  0  0  0  0
    0.0000   -1.5000    0.0000 C   0  0  0  0  0  0  0  0  0  0  0  0
   -1.2990   -0.7500    0.0000 C   0  0  0  0  0  0  0  0  0  0  0  0
   -1.2990    0.7500    0.0000 N   0  0  0  0  0  0  0  0  0  0  0  0
    0.0000    1.5000    0.0000 C   0  0  0  0  0  0  0  0  0  0  0  0
    1.2990    0.7500    0.0000 C   0  0  0  0  0  0  0  0  0  0  0  0
   -2.5987    1.5004    0.0000 C   0  0  0  0  0  0  0  0  0  0  0  0
   -3.8967    0.7484    0.0000 C   0  0  0  0  0  0  0  0  0  0  0  0
   -5.1969    1.4963    0.0000 C   0  0  0  0  0  0  0  0  0  0  0  0
   -5.1993    2.9963    0.0000 C   0  0  0  0  0  0  0  0  0  0  0  0
   -3.9015    3.7484    0.0000 C   0  0  0  0  0  0  0  0  0  0  0  0
   -2.6012    3.0004    0.0000 C   0  0  0  0  0  0  0  0  0  0  0  0
    5.1873   -7.5117    0.0000 C   0  0  0  0  0  0  0  0  0  0  0  0
    5.1894   -6.0109    0.0000 C   0  0  0  0  0  0  0  0  0  0  0  0
    3.8912   -5.2578    0.0000 N   0  0  0  0  0  0  0  0  0  0  0  0
    6.2297   -5.4127    0.0000 O   0  0  0  0  0  0  0  0  0  0  0  0
    4.4293   -9.7955    0.0000 C   0  0  0  0  0  0  0  0  0  0  0  0
    3.9707   -8.3673    0.0000 N   0  0  0  0  0  0  0  0  0  0  0  0
    6.3978   -8.3758    0.0000 C   0  0  0  0  0  0  0  0  0  0  0  0
    5.9293   -9.8007    0.0000 N   0  0  0  0  0  0  0  0  0  0  0  0
    6.8072  -11.0179    0.0000 C   0  0  0  0  0  0  0  0  0  0  0  0
    3.7206  -10.7639    0.0000 C   0  0  0  0  0  0  0  0  0  0  0  0
    3.8933   -3.7570    0.0000 C   0  0  0  0  0  0  0  0  0  0  0  0
    2.5951   -3.0039    0.0000 C   0  0  0  0  0  0  0  0  0  0  0  0
    2.5973   -1.5031    0.0000 C   0  0  0  0  0  0  0  0  0  0  0  0
    6.2979  -12.4235    0.0000 C   0  0  0  0  0  0  0  0  0  0  0  0
    7.2644  -13.5706    0.0000 C   0  0  0  0  0  0  0  0  0  0  0  0
    8.2847  -10.7495    0.0000 C   0  0  0  0  0  0  0  0  0  0  0  0
    9.2512  -11.8966    0.0000 C   0  0  0  0  0  0  0  0  0  0  0  0
    8.7411  -13.3071    0.0000 C   0  0  0  0  0  0  0  0  0  0  0  0
   -1.5630    3.6021    0.0000 C   0  0  0  0  0  0  0  0  0  0  0  0
   -3.9034    4.9484    0.0000 C   0  0  0  0  0  0  0  0  0  0  0  0
    7.5381   -8.0021    0.0000 C   0  0  0  0  0  0  0  0  0  0  0  0
   10.4326  -11.6858    0.0000 Cl  0  0  0  0  0  0  0  0  0  0  0  0
   18.2287   -4.1608    0.0000 Cl  0  0  0  0  0  0  0  0  0  0  0  0
   15.7287   -4.1608    0.0000 Cl  0  0  0  0  0  0  0  0  0  0  0  0
   13.2287   -4.1608    0.0000 Cl  0  0  0  0  0  0  0  0  0  0  0  0
  1  6  1  0
  8  9  2  0
  2  3  1  0
  9 10  1  0
 18 13  1  0
 13 19  2  0
 19 20  1  0
 20 17  1  0
  3  4  1  0
 20 21  1  0
 10 11  2  0
 17 22  1  0
  4  5  1  0
 15 23  1  0
 11 12  1  0
 23 24  1  0
 12  7  2  0
 24 25  1  0
 25  1  1  0
  4  7  1  0
 21 26  2  0
  5  6  1  0
 26 27  1  0
 27 30  2  0
  1  2  1  0
 29 28  2  0
 28 21  1  0
 29 30  1  0
 13 14  1  0
 14 15  1  0
 12 31  1  0
  7  8  1  0
 11 32  1  0
 14 16  2  0
 19 33  1  0
 17 18  2  0
 29 34  1  0
M  END
>  <ACTIVITY>  (39) 
96.8

$$$$

     RDKit          2D

 37 37  0  0  0  0  0  0  0  0999 V2000
    1.2990   -0.7500    0.0000 N   0  0  0  0  0  0  0  0  0  0  0  0
    0.0000   -1.5000    0.0000 C   0  0  0  0  0  0  0  0  0  0  0  0
   -1.2990   -0.7500    0.0000 C   0  0  0  0  0  0  0  0  0  0  0  0
   -1.2990    0.7500    0.0000 N   0  0  0  0  0  0  0  0  0  0  0  0
    0.0000    1.5000    0.0000 C   0  0  0  0  0  0  0  0  0  0  0  0
    1.2990    0.7500    0.0000 C   0  0  0  0  0  0  0  0  0  0  0  0
   -2.5987    1.5004    0.0000 C   0  0  0  0  0  0  0  0  0  0  0  0
   -3.8967    0.7484    0.0000 C   0  0  0  0  0  0  0  0  0  0  0  0
   -5.1969    1.4963    0.0000 C   0  0  0  0  0  0  0  0  0  0  0  0
   -5.1993    2.9963    0.0000 C   0  0  0  0  0  0  0  0  0  0  0  0
   -3.9015    3.7484    0.0000 C   0  0  0  0  0  0  0  0  0  0  0  0
   -2.6012    3.0004    0.0000 C   0  0  0  0  0  0  0  0  0  0  0  0
    5.1873   -7.5117    0.0000 C   0  0  0  0  0  0  0  0  0  0  0  0
    5.1894   -6.0109    0.0000 C   0  0  0  0  0  0  0  0  0  0  0  0
    3.8912   -5.2578    0.0000 N   0  0  0  0  0  0  0  0  0  0  0  0
    6.2297   -5.4127    0.0000 O   0  0  0  0  0  0  0  0  0  0  0  0
    4.4293   -9.7955    0.0000 C   0  0  0  0  0  0  0  0  0  0  0  0
    3.9707   -8.3673    0.0000 N   0  0  0  0  0  0  0  0  0  0  0  0
    6.3978   -8.3758    0.0000 C   0  0  0  0  0  0  0  0  0  0  0  0
    5.9293   -9.8007    0.0000 N   0  0  0  0  0  0  0  0  0  0  0  0
    6.8072  -11.0179    0.0000 C   0  0  0  0  0  0  0  0  0  0  0  0
    3.7206  -10.7639    0.0000 C   0  0  0  0  0  0  0  0  0  0  0  0
    3.8933   -3.7570    0.0000 C   0  0  0  0  0  0  0  0  0  0  0  0
    2.5951   -3.0039    0.0000 C   0  0  0  0  0  0  0  0  0  0  0  0
    2.5973   -1.5031    0.0000 C   0  0  0  0  0  0  0  0  0  0  0  0
    6.2979  -12.4235    0.0000 C   0  0  0  0  0  0  0  0  0  0  0  0
    7.2644  -13.5706    0.0000 C   0  0  0  0  0  0  0  0  0  0  0  0
    8.2847  -10.7495    0.0000 C   0  0  0  0  0  0  0  0  0  0  0  0
    9.2512  -11.8966    0.0000 C   0  0  0  0  0  0  0  0  0  0  0  0
    8.7411  -13.3071    0.0000 C   0  0  0  0  0  0  0  0  0  0  0  0
   -1.5630    3.6021    0.0000 C   0  0  0  0  0  0  0  0  0  0  0  0
   -3.9034    4.9484    0.0000 C   0  0  0  0  0  0  0  0  0  0  0  0
    7.5381   -8.0021    0.0000 C   0  0  0  0  0  0  0  0  0  0  0  0
    9.5143  -14.2248    0.0000 Cl  0  0  0  0  0  0  0  0  0  0  0  0
   17.2081   -4.6029    0.0000 Cl  0  0  0  0  0  0  0  0  0  0  0  0
   14.7081   -4.6029    0.0000 Cl  0  0  0  0  0  0  0  0  0  0  0  0
   12.2081   -4.6029    0.0000 Cl  0  0  0  0  0  0  0  0  0  0  0  0
  1  6  1  0
  8  9  2  0
  2  3  1  0
  9 10  1  0
 18 13  1  0
 13 19  2  0
 19 20  1  0
 20 17  1  0
  3  4  1  0
 20 21  1  0
 10 11  2  0
 17 22  1  0
  4  5  1  0
 15 23  1  0
 11 12  1  0
 23 24  1  0
 12  7  2  0
 24 25  1  0
 25  1  1  0
  4  7  1  0
 21 26  2  0
  5  6  1  0
 26 27  1  0
 27 30  2  0
  1  2  1  0
 29 28  2  0
 28 21  1  0
 29 30  1  0
 13 14  1  0
 14 15  1  0
 12 31  1  0
  7  8  1  0
 11 32  1  0
 14 16  2  0
 19 33  1  0
 17 18  2  0
 30 34  1  0
M  END
>  <ACTIVITY>  (40) 
67

$$$$

     RDKit          2D

 39 38  0  0  0  0  0  0  0  0999 V2000
    5.1945   -3.0045    0.0000 N   0  0  0  0  0  0  0  0  0  0  0  0
    5.1969   -1.5045    0.0000 C   0  0  0  0  0  0  0  0  0  0  0  0
    3.8991   -0.7525    0.0000 C   0  0  0  0  0  0  0  0  0  0  0  0
    2.5987   -1.5004    0.0000 N   0  0  0  0  0  0  0  0  0  0  0  0
    2.5965   -3.0004    0.0000 C   0  0  0  0  0  0  0  0  0  0  0  0
    3.8943   -3.7525    0.0000 C   0  0  0  0  0  0  0  0  0  0  0  0
    1.2990   -0.7500    0.0000 C   0  0  0  0  0  0  0  0  0  0  0  0
    0.0000   -1.5000    0.0000 C   0  0  0  0  0  0  0  0  0  0  0  0
   -1.2990   -0.7500    0.0000 C   0  0  0  0  0  0  0  0  0  0  0  0
   -1.2990    0.7500    0.0000 C   0  0  0  0  0  0  0  0  0  0  0  0
    0.0000    1.5000    0.0000 C   0  0  0  0  0  0  0  0  0  0  0  0
    1.2990    0.7500    0.0000 C   0  0  0  0  0  0  0  0  0  0  0  0
    9.0720   -9.7724    0.0000 C   0  0  0  0  0  0  0  0  0  0  0  0
    9.0765   -8.2716    0.0000 C   0  0  0  0  0  0  0  0  0  0  0  0
    7.7795   -7.5165    0.0000 N   0  0  0  0  0  0  0  0  0  0  0  0
   10.1178   -7.6751    0.0000 O   0  0  0  0  0  0  0  0  0  0  0  0
    9.8104  -12.0626    0.0000 C   0  0  0  0  0  0  0  0  0  0  0  0
   10.2812  -10.6384    0.0000 N   0  0  0  0  0  0  0  0  0  0  0  0
    7.8541  -10.6261    0.0000 C   0  0  0  0  0  0  0  0  0  0  0  0
    8.3104  -12.0550    0.0000 N   0  0  0  0  0  0  0  0  0  0  0  0
    7.4222  -13.2647    0.0000 C   0  0  0  0  0  0  0  0  0  0  0  0
   10.6874  -13.2773    0.0000 C   0  0  0  0  0  0  0  0  0  0  0  0
    7.7840   -6.0157    0.0000 C   0  0  0  0  0  0  0  0  0  0  0  0
    6.4870   -5.2605    0.0000 C   0  0  0  0  0  0  0  0  0  0  0  0
    6.4915   -3.7597    0.0000 C   0  0  0  0  0  0  0  0  0  0  0  0
    7.9195  -14.6746    0.0000 C   0  0  0  0  0  0  0  0  0  0  0  0
    6.9432  -15.8134    0.0000 C   0  0  0  0  0  0  0  0  0  0  0  0
    5.9470  -12.9836    0.0000 C   0  0  0  0  0  0  0  0  0  0  0  0
    4.9707  -14.1224    0.0000 C   0  0  0  0  0  0  0  0  0  0  0  0
    5.4688  -15.5373    0.0000 C   0  0  0  0  0  0  0  0  0  0  0  0
    2.3383    1.3500    0.0000 C   0  0  0  0  0  0  0  0  0  0  0  0
    0.0000    2.7000    0.0000 Cl  0  0  0  0  0  0  0  0  0  0  0  0
   12.1806  -13.1259    0.0000 C   0  0  0  0  0  0  0  0  0  0  0  0
   12.8830  -14.0988    0.0000 C   0  0  0  0  0  0  0  0  0  0  0  0
    4.6878  -16.4484    0.0000 Cl  0  0  0  0  0  0  0  0  0  0  0  0
   23.0591   -6.8380    0.0000 Cl  0  0  0  0  0  0  0  0  0  0  0  0
   20.5591   -6.8380    0.0000 Cl  0  0  0  0  0  0  0  0  0  0  0  0
   18.0591   -6.8380    0.0000 Cl  0  0  0  0  0  0  0  0  0  0  0  0
   15.5591   -6.8380    0.0000 Cl  0  0  0  0  0  0  0  0  0  0  0  0
  8  9  2  0
  2  3  1  0
  9 10  1  0
 18 13  1  0
 13 19  2  0
 19 20  1  0
 20 17  1  0
  3  4  1  0
 20 21  1  0
 10 11  2  0
 17 22  1  0
  4  5  1  0
 15 23  1  0
 11 12  1  0
 23 24  1  0
 12  7  2  0
 24 25  1  0
 25  1  1  0
  4  7  1  0
 21 26  2  0
  5  6  1  0
 26 27  1  0
 27 30  2  0
  1  2  1  0
 29 28  2  0
 28 21  1  0
 29 30  1  0
 13 14  1  0
 14 15  1  0
 12 31  1  0
  7  8  1  0
 11 32  1  0
 14 16  2  0
 22 33  1  0
 17 18  2  0
 33 34  1  0
  1  6  1  0
 30 35  1  0
M  END
>  <ACTIVITY>  (41) 
20

$$$$

     RDKit          2D

 38 38  0  0  0  0  0  0  0  0999 V2000
    5.1945   -3.0045    0.0000 N   0  0  0  0  0  0  0  0  0  0  0  0
    5.1969   -1.5045    0.0000 C   0  0  0  0  0  0  0  0  0  0  0  0
    3.8991   -0.7525    0.0000 C   0  0  0  0  0  0  0  0  0  0  0  0
    2.5987   -1.5004    0.0000 N   0  0  0  0  0  0  0  0  0  0  0  0
    2.5965   -3.0004    0.0000 C   0  0  0  0  0  0  0  0  0  0  0  0
    3.8943   -3.7525    0.0000 C   0  0  0  0  0  0  0  0  0  0  0  0
    1.2990   -0.7500    0.0000 C   0  0  0  0  0  0  0  0  0  0  0  0
    0.0000   -1.5000    0.0000 C   0  0  0  0  0  0  0  0  0  0  0  0
   -1.2990   -0.7500    0.0000 C   0  0  0  0  0  0  0  0  0  0  0  0
   -1.2990    0.7500    0.0000 C   0  0  0  0  0  0  0  0  0  0  0  0
    0.0000    1.5000    0.0000 C   0  0  0  0  0  0  0  0  0  0  0  0
    1.2990    0.7500    0.0000 C   0  0  0  0  0  0  0  0  0  0  0  0
    9.0720   -9.7724    0.0000 C   0  0  0  0  0  0  0  0  0  0  0  0
    9.0765   -8.2716    0.0000 C   0  0  0  0  0  0  0  0  0  0  0  0
    7.7795   -7.5165    0.0000 N   0  0  0  0  0  0  0  0  0  0  0  0
   10.1178   -7.6751    0.0000 O   0  0  0  0  0  0  0  0  0  0  0  0
    9.8104  -12.0626    0.0000 C   0  0  0  0  0  0  0  0  0  0  0  0
   10.2812  -10.6384    0.0000 N   0  0  0  0  0  0  0  0  0  0  0  0
    7.8541  -10.6261    0.0000 C   0  0  0  0  0  0  0  0  0  0  0  0
    8.3104  -12.0550    0.0000 N   0  0  0  0  0  0  0  0  0  0  0  0
    7.4222  -13.2647    0.0000 C   0  0  0  0  0  0  0  0  0  0  0  0
   10.6874  -13.2773    0.0000 C   0  0  0  0  0  0  0  0  0  0  0  0
    7.7840   -6.0157    0.0000 C   0  0  0  0  0  0  0  0  0  0  0  0
    6.4870   -5.2605    0.0000 C   0  0  0  0  0  0  0  0  0  0  0  0
    6.4915   -3.7597    0.0000 C   0  0  0  0  0  0  0  0  0  0  0  0
    7.9195  -14.6746    0.0000 C   0  0  0  0  0  0  0  0  0  0  0  0
    6.9432  -15.8134    0.0000 C   0  0  0  0  0  0  0  0  0  0  0  0
    5.9470  -12.9836    0.0000 C   0  0  0  0  0  0  0  0  0  0  0  0
    4.9707  -14.1224    0.0000 C   0  0  0  0  0  0  0  0  0  0  0  0
    5.4688  -15.5373    0.0000 C   0  0  0  0  0  0  0  0  0  0  0  0
    2.3383    1.3500    0.0000 C   0  0  0  0  0  0  0  0  0  0  0  0
    0.0000    2.7000    0.0000 C   0  0  0  0  0  0  0  0  0  0  0  0
   12.1806  -13.1259    0.0000 C   0  0  0  0  0  0  0  0  0  0  0  0
   12.8830  -14.0988    0.0000 C   0  0  0  0  0  0  0  0  0  0  0  0
    4.6878  -16.4484    0.0000 Cl  0  0  0  0  0  0  0  0  0  0  0  0
   20.5591   -6.8380    0.0000 Cl  0  0  0  0  0  0  0  0  0  0  0  0
   18.0591   -6.8380    0.0000 Cl  0  0  0  0  0  0  0  0  0  0  0  0
   15.5591   -6.8380    0.0000 Cl  0  0  0  0  0  0  0  0  0  0  0  0
  8  9  2  0
  2  3  1  0
  9 10  1  0
 18 13  1  0
 13 19  2  0
 19 20  1  0
 20 17  1  0
  3  4  1  0
 20 21  1  0
 10 11  2  0
 17 22  1  0
  4  5  1  0
 15 23  1  0
 11 12  1  0
 23 24  1  0
 12  7  2  0
 24 25  1  0
 25  1  1  0
  4  7  1  0
 21 26  2  0
  5  6  1  0
 26 27  1  0
 27 30  2  0
  1  2  1  0
 29 28  2  0
 28 21  1  0
 29 30  1  0
 13 14  1  0
 14 15  1  0
 12 31  1  0
  7  8  1  0
 11 32  1  0
 14 16  2  0
 22 33  1  0
 17 18  2  0
 33 34  1  0
  1  6  1  0
 30 35  1  0
M  END
>  <ACTIVITY>  (42) 
32.4

$$$$

     RDKit          2D

 39 40  0  0  0  0  0  0  0  0999 V2000
    5.1945   -3.0045    0.0000 N   0  0  0  0  0  0  0  0  0  0  0  0
    5.1969   -1.5045    0.0000 C   0  0  0  0  0  0  0  0  0  0  0  0
    3.8991   -0.7525    0.0000 C   0  0  0  0  0  0  0  0  0  0  0  0
    2.5987   -1.5004    0.0000 N   0  0  0  0  0  0  0  0  0  0  0  0
    2.5965   -3.0004    0.0000 C   0  0  0  0  0  0  0  0  0  0  0  0
    3.8943   -3.7525    0.0000 C   0  0  0  0  0  0  0  0  0  0  0  0
    1.2990   -0.7500    0.0000 C   0  0  0  0  0  0  0  0  0  0  0  0
    0.0000   -1.5000    0.0000 C   0  0  0  0  0  0  0  0  0  0  0  0
   -1.2990   -0.7500    0.0000 C   0  0  0  0  0  0  0  0  0  0  0  0
   -1.2990    0.7500    0.0000 C   0  0  0  0  0  0  0  0  0  0  0  0
    0.0000    1.5000    0.0000 C   0  0  0  0  0  0  0  0  0  0  0  0
    1.2990    0.7500    0.0000 C   0  0  0  0  0  0  0  0  0  0  0  0
    9.0720   -9.7724    0.0000 C   0  0  0  0  0  0  0  0  0  0  0  0
    9.0765   -8.2716    0.0000 C   0  0  0  0  0  0  0  0  0  0  0  0
    7.7795   -7.5165    0.0000 N   0  0  0  0  0  0  0  0  0  0  0  0
   10.1178   -7.6751    0.0000 O   0  0  0  0  0  0  0  0  0  0  0  0
    8.3104  -12.0550    0.0000 C   0  0  0  0  0  0  0  0  0  0  0  0
    7.8541  -10.6261    0.0000 N   0  0  0  0  0  0  0  0  0  0  0  0
   10.2812  -10.6384    0.0000 C   0  0  0  0  0  0  0  0  0  0  0  0
    9.8104  -12.0626    0.0000 N   0  0  0  0  0  0  0  0  0  0  0  0
   10.6864  -13.2812    0.0000 C   0  0  0  0  0  0  0  0  0  0  0  0
    7.6002  -13.0223    0.0000 C   0  0  0  0  0  0  0  0  0  0  0  0
    7.7840   -6.0157    0.0000 C   0  0  0  0  0  0  0  0  0  0  0  0
    6.4870   -5.2605    0.0000 C   0  0  0  0  0  0  0  0  0  0  0  0
    6.4915   -3.7597    0.0000 C   0  0  0  0  0  0  0  0  0  0  0  0
   10.1748  -14.6860    0.0000 C   0  0  0  0  0  0  0  0  0  0  0  0
   11.1395  -15.8346    0.0000 C   0  0  0  0  0  0  0  0  0  0  0  0
   12.1643  -13.0151    0.0000 C   0  0  0  0  0  0  0  0  0  0  0  0
   13.1290  -14.1637    0.0000 C   0  0  0  0  0  0  0  0  0  0  0  0
   12.6166  -15.5735    0.0000 C   0  0  0  0  0  0  0  0  0  0  0  0
    2.3383    1.3500    0.0000 C   0  0  0  0  0  0  0  0  0  0  0  0
    0.0000    2.7000    0.0000 C   0  0  0  0  0  0  0  0  0  0  0  0
   14.6075  -13.9055    0.0000 O   0  0  0  0  0  0  0  0  0  0  0  0
   15.3779  -14.8255    0.0000 C   0  0  0  0  0  0  0  0  0  0  0  0
   10.6297  -17.2462    0.0000 O   0  0  0  0  0  0  0  0  0  0  0  0
   11.4028  -18.1640    0.0000 C   0  0  0  0  0  0  0  0  0  0  0  0
   11.4221  -10.2666    0.0000 C   0  0  0  0  0  0  0  0  0  0  0  0
   20.5711   -7.6967    0.0000 Cl  0  0  0  0  0  0  0  0  0  0  0  0
   18.0711   -7.6967    0.0000 Cl  0  0  0  0  0  0  0  0  0  0  0  0
  9 10  2  0
 18 13  1  0
 13 19  2  0
 19 20  1  0
 20 17  1  0
  3  4  1  0
 20 21  1  0
 10 11  1  0
 17 22  1  0
  4  5  1  0
 15 23  1  0
 11 12  2  0
 23 24  1  0
 12  7  1  0
 24 25  1  0
 25  1  1  0
  4  7  1  0
 21 26  2  0
  5  6  1  0
 26 27  1  0
 27 30  2  0
  1  2  1  0
 29 28  2  0
 28 21  1  0
 29 30  1  0
 13 14  1  0
 14 15  1  0
 12 31  1  0
  7  8  2  0
 11 32  1  0
 14 16  2  0
 29 33  1  0
 17 18  2  0
 33 34  1  0
  1  6  1  0
 27 35  1  0
  8  9  1  0
 35 36  1  0
  2  3  1  0
 19 37  1  0
M  END
>  <ACTIVITY>  (43) 
32

$$$$

     RDKit          2D

 40 41  0  0  0  0  0  0  0  0999 V2000
  -11.8359    7.8605    0.0000 N   0  0  0  0  0  0  0  0  0  0  0  0
  -12.4520    9.2282    0.0000 C   0  0  0  0  0  0  0  0  0  0  0  0
  -13.9444    9.3786    0.0000 C   0  0  0  0  0  0  0  0  0  0  0  0
  -14.8209    8.1613    0.0000 N   0  0  0  0  0  0  0  0  0  0  0  0
  -14.2050    6.7936    0.0000 C   0  0  0  0  0  0  0  0  0  0  0  0
  -12.7125    6.6432    0.0000 C   0  0  0  0  0  0  0  0  0  0  0  0
  -16.3141    8.3118    0.0000 C   0  0  0  0  0  0  0  0  0  0  0  0
  -17.1888    7.0932    0.0000 C   0  0  0  0  0  0  0  0  0  0  0  0
  -18.6814    7.2412    0.0000 C   0  0  0  0  0  0  0  0  0  0  0  0
  -19.2995    8.6080    0.0000 C   0  0  0  0  0  0  0  0  0  0  0  0
  -18.4250    9.8266    0.0000 C   0  0  0  0  0  0  0  0  0  0  0  0
  -16.9323    9.6786    0.0000 C   0  0  0  0  0  0  0  0  0  0  0  0
   -5.5150    3.2942    0.0000 C   0  0  0  0  0  0  0  0  0  0  0  0
   -6.1284    4.6612    0.0000 C   0  0  0  0  0  0  0  0  0  0  0  0
   -7.6213    4.8147    0.0000 N   0  0  0  0  0  0  0  0  0  0  0  0
   -5.4255    5.6338    0.0000 O   0  0  0  0  0  0  0  0  0  0  0  0
   -5.2594    0.8807    0.0000 C   0  0  0  0  0  0  0  0  0  0  0  0
   -6.2640    1.9946    0.0000 N   0  0  0  0  0  0  0  0  0  0  0  0
   -4.0476    2.9835    0.0000 C   0  0  0  0  0  0  0  0  0  0  0  0
   -3.9086    1.5029    0.0000 N   0  0  0  0  0  0  0  0  0  0  0  0
   -2.6111    0.7486    0.0000 C   0  0  0  0  0  0  0  0  0  0  0  0
   -5.5010   -0.2948    0.0000 C   0  0  0  0  0  0  0  0  0  0  0  0
   -8.2357    6.1841    0.0000 C   0  0  0  0  0  0  0  0  0  0  0  0
   -9.7286    6.3376    0.0000 C   0  0  0  0  0  0  0  0  0  0  0  0
  -10.3430    7.7069    0.0000 C   0  0  0  0  0  0  0  0  0  0  0  0
   -2.6111   -0.7486    0.0000 C   0  0  0  0  0  0  0  0  0  0  0  0
   -1.2964   -1.4973    0.0000 C   0  0  0  0  0  0  0  0  0  0  0  0
   -1.2964    1.4973    0.0000 C   0  0  0  0  0  0  0  0  0  0  0  0
  -16.2327   10.6535    0.0000 C   0  0  0  0  0  0  0  0  0  0  0  0
  -18.9195   10.9200    0.0000 Cl  0  0  0  0  0  0  0  0  0  0  0  0
   -3.1517    3.7818    0.0000 C   0  0  0  0  0  0  0  0  0  0  0  0
    0.0000    0.7486    0.0000 C   0  0  0  0  0  0  0  0  0  0  0  0
    0.0000   -0.7486    0.0000 C   0  0  0  0  0  0  0  0  0  0  0  0
    1.2964   -1.4973    0.0000 O   0  0  0  0  0  0  0  0  0  0  0  0
    2.5929   -0.7486    0.0000 C   0  0  0  0  0  0  0  0  0  0  0  0
    2.5929    0.7486    0.0000 C   0  0  0  0  0  0  0  0  0  0  0  0
    1.2964    1.4973    0.0000 O   0  0  0  0  0  0  0  0  0  0  0  0
   10.0929    4.8484    0.0000 Cl  0  0  0  0  0  0  0  0  0  0  0  0
    7.5929    4.8484    0.0000 Cl  0  0  0  0  0  0  0  0  0  0  0  0
    5.0929    4.8484    0.0000 Cl  0  0  0  0  0  0  0  0  0  0  0  0
  9 10  2  0
 18 13  1  0
 13 19  2  0
 19 20  1  0
 20 17  1  0
  3  4  1  0
 20 21  1  0
 10 11  1  0
 17 22  1  0
  4  5  1  0
 15 23  1  0
 11 12  2  0
 23 24  1  0
 12  7  1  0
 24 25  1  0
 25  1  1  0
  4  7  1  0
 21 26  2  0
  5  6  1  0
 26 27  1  0
 27 33  2  0
  1  2  1  0
 32 28  2  0
 28 21  1  0
 13 14  1  0
 12 29  1  0
 11 30  1  0
 14 15  1  0
 19 31  1  0
 32 33  1  0
  7  8  2  0
 14 16  2  0
 17 18  2  0
  1  6  1  0
  8  9  1  0
  2  3  1  0
 32 37  1  0
 33 34  1  0
 34 35  1  0
 35 36  1  0
 36 37  1  0
M  END
>  <ACTIVITY>  (44) 
28

$$$$

     RDKit          2D

 39 41  0  0  0  0  0  0  0  0999 V2000
  -11.8359    7.8605    0.0000 N   0  0  0  0  0  0  0  0  0  0  0  0
  -12.4520    9.2282    0.0000 C   0  0  0  0  0  0  0  0  0  0  0  0
  -13.9444    9.3786    0.0000 C   0  0  0  0  0  0  0  0  0  0  0  0
  -14.8209    8.1613    0.0000 N   0  0  0  0  0  0  0  0  0  0  0  0
  -14.2050    6.7936    0.0000 C   0  0  0  0  0  0  0  0  0  0  0  0
  -12.7125    6.6432    0.0000 C   0  0  0  0  0  0  0  0  0  0  0  0
  -16.3141    8.3118    0.0000 C   0  0  0  0  0  0  0  0  0  0  0  0
  -17.1888    7.0932    0.0000 C   0  0  0  0  0  0  0  0  0  0  0  0
  -18.6814    7.2412    0.0000 C   0  0  0  0  0  0  0  0  0  0  0  0
  -19.2995    8.6080    0.0000 C   0  0  0  0  0  0  0  0  0  0  0  0
  -18.4250    9.8266    0.0000 C   0  0  0  0  0  0  0  0  0  0  0  0
  -16.9323    9.6786    0.0000 C   0  0  0  0  0  0  0  0  0  0  0  0
   -5.5150    3.2942    0.0000 C   0  0  0  0  0  0  0  0  0  0  0  0
   -6.1284    4.6612    0.0000 C   0  0  0  0  0  0  0  0  0  0  0  0
   -7.6213    4.8147    0.0000 N   0  0  0  0  0  0  0  0  0  0  0  0
   -5.4255    5.6338    0.0000 O   0  0  0  0  0  0  0  0  0  0  0  0
   -5.2594    0.8807    0.0000 C   0  0  0  0  0  0  0  0  0  0  0  0
   -6.2640    1.9946    0.0000 N   0  0  0  0  0  0  0  0  0  0  0  0
   -4.0476    2.9835    0.0000 C   0  0  0  0  0  0  0  0  0  0  0  0
   -3.9086    1.5029    0.0000 N   0  0  0  0  0  0  0  0  0  0  0  0
   -2.6111    0.7486    0.0000 C   0  0  0  0  0  0  0  0  0  0  0  0
   -5.5010   -0.2948    0.0000 C   0  0  0  0  0  0  0  0  0  0  0  0
   -8.2357    6.1841    0.0000 C   0  0  0  0  0  0  0  0  0  0  0  0
   -9.7286    6.3376    0.0000 C   0  0  0  0  0  0  0  0  0  0  0  0
  -10.3430    7.7069    0.0000 C   0  0  0  0  0  0  0  0  0  0  0  0
   -2.6111   -0.7486    0.0000 C   0  0  0  0  0  0  0  0  0  0  0  0
   -1.2964   -1.4973    0.0000 C   0  0  0  0  0  0  0  0  0  0  0  0
   -1.2964    1.4973    0.0000 C   0  0  0  0  0  0  0  0  0  0  0  0
  -16.2327   10.6535    0.0000 C   0  0  0  0  0  0  0  0  0  0  0  0
  -18.9195   10.9200    0.0000 C   0  0  0  0  0  0  0  0  0  0  0  0
   -3.1517    3.7818    0.0000 C   0  0  0  0  0  0  0  0  0  0  0  0
    0.0000    0.7486    0.0000 C   0  0  0  0  0  0  0  0  0  0  0  0
    0.0000   -0.7486    0.0000 C   0  0  0  0  0  0  0  0  0  0  0  0
    1.2964   -1.4973    0.0000 O   0  0  0  0  0  0  0  0  0  0  0  0
    2.5929   -0.7486    0.0000 C   0  0  0  0  0  0  0  0  0  0  0  0
    2.5929    0.7486    0.0000 C   0  0  0  0  0  0  0  0  0  0  0  0
    1.2964    1.4973    0.0000 O   0  0  0  0  0  0  0  0  0  0  0  0
    7.5929    4.8484    0.0000 Cl  0  0  0  0  0  0  0  0  0  0  0  0
    5.0929    4.8484    0.0000 Cl  0  0  0  0  0  0  0  0  0  0  0  0
  9 10  2  0
 18 13  1  0
 13 19  2  0
 19 20  1  0
 20 17  1  0
  3  4  1  0
 20 21  1  0
 10 11  1  0
 17 22  1  0
  4  5  1  0
 15 23  1  0
 11 12  2  0
 23 24  1  0
 12  7  1  0
 24 25  1  0
 25  1  1  0
  4  7  1  0
 21 26  2  0
  5  6  1  0
 26 27  1  0
 27 33  2  0
  1  2  1  0
 32 28  2  0
 28 21  1  0
 13 14  1  0
 12 29  1  0
 11 30  1  0
 14 15  1  0
 19 31  1  0
 32 33  1  0
  7  8  2  0
 14 16  2  0
 17 18  2  0
  1  6  1  0
  8  9  1  0
  2  3  1  0
 32 37  1  0
 33 34  1  0
 34 35  1  0
 35 36  1  0
 36 37  1  0
M  END
>  <ACTIVITY>  (45) 
40.6

$$$$

     RDKit          2D

 42 43  0  0  0  0  0  0  0  0999 V2000
  -11.8359    7.8604    0.0000 N   0  0  0  0  0  0  0  0  0  0  0  0
  -12.4520    9.2281    0.0000 C   0  0  0  0  0  0  0  0  0  0  0  0
  -13.9444    9.3786    0.0000 C   0  0  0  0  0  0  0  0  0  0  0  0
  -14.8209    8.1613    0.0000 N   0  0  0  0  0  0  0  0  0  0  0  0
  -14.2050    6.7936    0.0000 C   0  0  0  0  0  0  0  0  0  0  0  0
  -12.7125    6.6432    0.0000 C   0  0  0  0  0  0  0  0  0  0  0  0
  -16.3141    8.3118    0.0000 C   0  0  0  0  0  0  0  0  0  0  0  0
  -17.1888    7.0931    0.0000 C   0  0  0  0  0  0  0  0  0  0  0  0
  -18.6815    7.2412    0.0000 C   0  0  0  0  0  0  0  0  0  0  0  0
  -19.2996    8.6079    0.0000 C   0  0  0  0  0  0  0  0  0  0  0  0
  -18.4250    9.8266    0.0000 C   0  0  0  0  0  0  0  0  0  0  0  0
  -16.9323    9.6785    0.0000 C   0  0  0  0  0  0  0  0  0  0  0  0
   -5.5150    3.2942    0.0000 C   0  0  0  0  0  0  0  0  0  0  0  0
   -6.1284    4.6612    0.0000 C   0  0  0  0  0  0  0  0  0  0  0  0
   -7.6213    4.8147    0.0000 N   0  0  0  0  0  0  0  0  0  0  0  0
   -5.4255    5.6338    0.0000 O   0  0  0  0  0  0  0  0  0  0  0  0
   -5.2594    0.8807    0.0000 C   0  0  0  0  0  0  0  0  0  0  0  0
   -6.2640    1.9946    0.0000 N   0  0  0  0  0  0  0  0  0  0  0  0
   -4.0476    2.9835    0.0000 C   0  0  0  0  0  0  0  0  0  0  0  0
   -3.9086    1.5029    0.0000 N   0  0  0  0  0  0  0  0  0  0  0  0
   -2.6111    0.7486    0.0000 C   0  0  0  0  0  0  0  0  0  0  0  0
   -5.5615   -0.5868    0.0000 C   0  0  0  0  0  0  0  0  0  0  0  0
   -8.2357    6.1840    0.0000 C   0  0  0  0  0  0  0  0  0  0  0  0
   -9.7286    6.3376    0.0000 C   0  0  0  0  0  0  0  0  0  0  0  0
  -10.3430    7.7069    0.0000 C   0  0  0  0  0  0  0  0  0  0  0  0
   -2.6111   -0.7486    0.0000 C   0  0  0  0  0  0  0  0  0  0  0  0
   -1.2964   -1.4973    0.0000 C   0  0  0  0  0  0  0  0  0  0  0  0
   -1.2964    1.4973    0.0000 C   0  0  0  0  0  0  0  0  0  0  0  0
  -16.2327   10.6535    0.0000 C   0  0  0  0  0  0  0  0  0  0  0  0
  -18.9195   10.9200    0.0000 Cl  0  0  0  0  0  0  0  0  0  0  0  0
   -3.1517    3.7818    0.0000 C   0  0  0  0  0  0  0  0  0  0  0  0
    0.0000    0.7486    0.0000 C   0  0  0  0  0  0  0  0  0  0  0  0
    0.0000   -0.7486    0.0000 C   0  0  0  0  0  0  0  0  0  0  0  0
    1.2964   -1.4973    0.0000 O   0  0  0  0  0  0  0  0  0  0  0  0
    2.5929   -0.7486    0.0000 C   0  0  0  0  0  0  0  0  0  0  0  0
    2.5929    0.7486    0.0000 C   0  0  0  0  0  0  0  0  0  0  0  0
    1.2964    1.4973    0.0000 O   0  0  0  0  0  0  0  0  0  0  0  0
   -6.9856   -1.0607    0.0000 C   0  0  0  0  0  0  0  0  0  0  0  0
   -7.2275   -2.2360    0.0000 C   0  0  0  0  0  0  0  0  0  0  0  0
   10.0929    4.3317    0.0000 Cl  0  0  0  0  0  0  0  0  0  0  0  0
    7.5929    4.3317    0.0000 Cl  0  0  0  0  0  0  0  0  0  0  0  0
    5.0929    4.3317    0.0000 Cl  0  0  0  0  0  0  0  0  0  0  0  0
 13 19  2  0
 19 20  1  0
 20 17  1  0
  3  4  1  0
 20 21  1  0
 10 11  1  0
 17 22  1  0
  4  5  1  0
 15 23  1  0
 11 12  2  0
 23 24  1  0
 12  7  1  0
 24 25  1  0
 25  1  1  0
  4  7  1  0
 21 26  2  0
  5  6  1  0
 26 27  1  0
 27 33  2  0
  1  2  1  0
 32 28  2  0
 28 21  1  0
 13 14  1  0
 12 29  1  0
 11 30  1  0
 14 15  1  0
 19 31  1  0
 32 33  1  0
  7  8  2  0
 14 16  2  0
 17 18  2  0
  1  6  1  0
  8  9  1  0
  2  3  1  0
 32 37  1  0
 33 34  1  0
 34 35  1  0
 35 36  1  0
 36 37  1  0
  9 10  2  0
 22 38  1  0
 18 13  1  0
 38 39  1  0
M  END
>  <ACTIVITY>  (46) 
47

$$$$

     RDKit          2D

 41 43  0  0  0  0  0  0  0  0999 V2000
  -11.8359    7.8604    0.0000 N   0  0  0  0  0  0  0  0  0  0  0  0
  -12.4520    9.2281    0.0000 C   0  0  0  0  0  0  0  0  0  0  0  0
  -13.9444    9.3786    0.0000 C   0  0  0  0  0  0  0  0  0  0  0  0
  -14.8209    8.1613    0.0000 N   0  0  0  0  0  0  0  0  0  0  0  0
  -14.2050    6.7936    0.0000 C   0  0  0  0  0  0  0  0  0  0  0  0
  -12.7125    6.6432    0.0000 C   0  0  0  0  0  0  0  0  0  0  0  0
  -16.3141    8.3118    0.0000 C   0  0  0  0  0  0  0  0  0  0  0  0
  -17.1888    7.0931    0.0000 C   0  0  0  0  0  0  0  0  0  0  0  0
  -18.6815    7.2412    0.0000 C   0  0  0  0  0  0  0  0  0  0  0  0
  -19.2996    8.6079    0.0000 C   0  0  0  0  0  0  0  0  0  0  0  0
  -18.4250    9.8266    0.0000 C   0  0  0  0  0  0  0  0  0  0  0  0
  -16.9323    9.6785    0.0000 C   0  0  0  0  0  0  0  0  0  0  0  0
   -5.5150    3.2942    0.0000 C   0  0  0  0  0  0  0  0  0  0  0  0
   -6.1284    4.6612    0.0000 C   0  0  0  0  0  0  0  0  0  0  0  0
   -7.6213    4.8147    0.0000 N   0  0  0  0  0  0  0  0  0  0  0  0
   -5.4255    5.6338    0.0000 O   0  0  0  0  0  0  0  0  0  0  0  0
   -5.2594    0.8807    0.0000 C   0  0  0  0  0  0  0  0  0  0  0  0
   -6.2640    1.9946    0.0000 N   0  0  0  0  0  0  0  0  0  0  0  0
   -4.0476    2.9835    0.0000 C   0  0  0  0  0  0  0  0  0  0  0  0
   -3.9086    1.5029    0.0000 N   0  0  0  0  0  0  0  0  0  0  0  0
   -2.6111    0.7486    0.0000 C   0  0  0  0  0  0  0  0  0  0  0  0
   -5.5615   -0.5868    0.0000 C   0  0  0  0  0  0  0  0  0  0  0  0
   -8.2357    6.1840    0.0000 C   0  0  0  0  0  0  0  0  0  0  0  0
   -9.7286    6.3376    0.0000 C   0  0  0  0  0  0  0  0  0  0  0  0
  -10.3430    7.7069    0.0000 C   0  0  0  0  0  0  0  0  0  0  0  0
   -2.6111   -0.7486    0.0000 C   0  0  0  0  0  0  0  0  0  0  0  0
   -1.2964   -1.4973    0.0000 C   0  0  0  0  0  0  0  0  0  0  0  0
   -1.2964    1.4973    0.0000 C   0  0  0  0  0  0  0  0  0  0  0  0
  -16.2327   10.6535    0.0000 C   0  0  0  0  0  0  0  0  0  0  0  0
  -18.9195   10.9200    0.0000 C   0  0  0  0  0  0  0  0  0  0  0  0
   -3.1517    3.7818    0.0000 C   0  0  0  0  0  0  0  0  0  0  0  0
    0.0000    0.7486    0.0000 C   0  0  0  0  0  0  0  0  0  0  0  0
    0.0000   -0.7486    0.0000 C   0  0  0  0  0  0  0  0  0  0  0  0
    1.2964   -1.4973    0.0000 O   0  0  0  0  0  0  0  0  0  0  0  0
    2.5929   -0.7486    0.0000 C   0  0  0  0  0  0  0  0  0  0  0  0
    2.5929    0.7486    0.0000 C   0  0  0  0  0  0  0  0  0  0  0  0
    1.2964    1.4973    0.0000 O   0  0  0  0  0  0  0  0  0  0  0  0
   -6.9856   -1.0607    0.0000 C   0  0  0  0  0  0  0  0  0  0  0  0
   -7.2275   -2.2360    0.0000 C   0  0  0  0  0  0  0  0  0  0  0  0
    7.5929    4.3317    0.0000 Cl  0  0  0  0  0  0  0  0  0  0  0  0
    5.0929    4.3317    0.0000 Cl  0  0  0  0  0  0  0  0  0  0  0  0
 13 19  2  0
 19 20  1  0
 20 17  1  0
  3  4  1  0
 20 21  1  0
 10 11  1  0
 17 22  1  0
  4  5  1  0
 15 23  1  0
 11 12  2  0
 23 24  1  0
 12  7  1  0
 24 25  1  0
 25  1  1  0
  4  7  1  0
 21 26  2  0
  5  6  1  0
 26 27  1  0
 27 33  2  0
  1  2  1  0
 32 28  2  0
 28 21  1  0
 13 14  1  0
 12 29  1  0
 11 30  1  0
 14 15  1  0
 19 31  1  0
 32 33  1  0
  7  8  2  0
 14 16  2  0
 17 18  2  0
  1  6  1  0
  8  9  1  0
  2  3  1  0
 32 37  1  0
 33 34  1  0
 34 35  1  0
 35 36  1  0
 36 37  1  0
  9 10  2  0
 22 38  1  0
 18 13  1  0
 38 39  1  0
M  END
>  <ACTIVITY>  (47) 
241

$$$$

     RDKit          2D

 44 47  0  0  0  0  0  0  0  0999 V2000
  -11.8359    7.8605    0.0000 N   0  0  0  0  0  0  0  0  0  0  0  0
  -12.4520    9.2282    0.0000 C   0  0  0  0  0  0  0  0  0  0  0  0
  -13.9444    9.3786    0.0000 C   0  0  0  0  0  0  0  0  0  0  0  0
  -14.8209    8.1613    0.0000 N   0  0  0  0  0  0  0  0  0  0  0  0
  -14.2050    6.7936    0.0000 C   0  0  0  0  0  0  0  0  0  0  0  0
  -12.7125    6.6432    0.0000 C   0  0  0  0  0  0  0  0  0  0  0  0
  -16.3141    8.3118    0.0000 C   0  0  0  0  0  0  0  0  0  0  0  0
  -17.1888    7.0932    0.0000 C   0  0  0  0  0  0  0  0  0  0  0  0
  -18.6814    7.2412    0.0000 C   0  0  0  0  0  0  0  0  0  0  0  0
  -19.2995    8.6080    0.0000 C   0  0  0  0  0  0  0  0  0  0  0  0
  -18.4250    9.8266    0.0000 C   0  0  0  0  0  0  0  0  0  0  0  0
  -16.9323    9.6786    0.0000 C   0  0  0  0  0  0  0  0  0  0  0  0
   -5.5150    3.2942    0.0000 C   0  0  0  0  0  0  0  0  0  0  0  0
   -6.1284    4.6612    0.0000 C   0  0  0  0  0  0  0  0  0  0  0  0
   -7.6213    4.8147    0.0000 N   0  0  0  0  0  0  0  0  0  0  0  0
   -5.4255    5.6338    0.0000 O   0  0  0  0  0  0  0  0  0  0  0  0
   -5.2594    0.8807    0.0000 C   0  0  0  0  0  0  0  0  0  0  0  0
   -6.2640    1.9946    0.0000 N   0  0  0  0  0  0  0  0  0  0  0  0
   -4.0476    2.9835    0.0000 C   0  0  0  0  0  0  0  0  0  0  0  0
   -3.9086    1.5029    0.0000 N   0  0  0  0  0  0  0  0  0  0  0  0
   -2.6111    0.7486    0.0000 C   0  0  0  0  0  0  0  0  0  0  0  0
   -5.5615   -0.5894    0.0000 C   0  0  0  0  0  0  0  0  0  0  0  0
   -8.2357    6.1841    0.0000 C   0  0  0  0  0  0  0  0  0  0  0  0
   -9.7286    6.3376    0.0000 C   0  0  0  0  0  0  0  0  0  0  0  0
  -10.3430    7.7069    0.0000 C   0  0  0  0  0  0  0  0  0  0  0  0
   -2.6111   -0.7486    0.0000 C   0  0  0  0  0  0  0  0  0  0  0  0
   -1.2964   -1.4973    0.0000 C   0  0  0  0  0  0  0  0  0  0  0  0
   -1.2964    1.4973    0.0000 C   0  0  0  0  0  0  0  0  0  0  0  0
  -16.2327   10.6535    0.0000 C   0  0  0  0  0  0  0  0  0  0  0  0
  -18.9195   10.9200    0.0000 C   0  0  0  0  0  0  0  0  0  0  0  0
   -3.1517    3.7818    0.0000 C   0  0  0  0  0  0  0  0  0  0  0  0
    0.0000    0.7486    0.0000 C   0  0  0  0  0  0  0  0  0  0  0  0
    0.0000   -0.7486    0.0000 C   0  0  0  0  0  0  0  0  0  0  0  0
    1.2964   -1.4973    0.0000 O   0  0  0  0  0  0  0  0  0  0  0  0
    2.5929   -0.7486    0.0000 C   0  0  0  0  0  0  0  0  0  0  0  0
    2.5929    0.7486    0.0000 C   0  0  0  0  0  0  0  0  0  0  0  0
    1.2964    1.4973    0.0000 O   0  0  0  0  0  0  0  0  0  0  0  0
   -4.5257   -1.6670    0.0000 C   0  0  0  0  0  0  0  0  0  0  0  0
   -4.9433   -3.1077    0.0000 C   0  0  0  0  0  0  0  0  0  0  0  0
   -6.3998   -3.4663    0.0000 C   0  0  0  0  0  0  0  0  0  0  0  0
   -7.4387   -2.3842    0.0000 C   0  0  0  0  0  0  0  0  0  0  0  0
   -7.0210   -0.9436    0.0000 C   0  0  0  0  0  0  0  0  0  0  0  0
    7.5929    3.8639    0.0000 Cl  0  0  0  0  0  0  0  0  0  0  0  0
    5.0929    3.8639    0.0000 Cl  0  0  0  0  0  0  0  0  0  0  0  0
  3  4  1  0
 20 21  1  0
 10 11  1  0
 17 22  1  0
  4  5  1  0
 15 23  1  0
 11 12  2  0
 23 24  1  0
 12  7  1  0
 24 25  1  0
 25  1  1  0
  4  7  1  0
 21 26  2  0
  5  6  1  0
 26 27  1  0
 27 33  2  0
  1  2  1  0
 32 28  2  0
 28 21  1  0
 13 14  1  0
 12 29  1  0
 11 30  1  0
 14 15  1  0
 19 31  1  0
 32 33  1  0
  7  8  2  0
 14 16  2  0
 17 18  2  0
  1  6  1  0
  8  9  1  0
  2  3  1  0
 32 37  1  0
 33 34  1  0
 34 35  1  0
 35 36  1  0
 36 37  1  0
  9 10  2  0
 22 38  2  0
 18 13  1  0
 38 39  1  0
 13 19  2  0
 39 40  2  0
 19 20  1  0
 40 41  1  0
 20 17  1  0
 41 42  2  0
 42 22  1  0
M  END
>  <ACTIVITY>  (48) 
19

$$$$

     RDKit          2D

 36 37  0  0  0  0  0  0  0  0999 V2000
    1.2990   -0.7500    0.0000 N   0  0  0  0  0  0  0  0  0  0  0  0
    0.0000   -1.5000    0.0000 C   0  0  0  0  0  0  0  0  0  0  0  0
   -1.2990   -0.7500    0.0000 C   0  0  0  0  0  0  0  0  0  0  0  0
   -1.2990    0.7500    0.0000 N   0  0  0  0  0  0  0  0  0  0  0  0
    0.0000    1.5000    0.0000 C   0  0  0  0  0  0  0  0  0  0  0  0
    1.2990    0.7500    0.0000 C   0  0  0  0  0  0  0  0  0  0  0  0
   -2.5987    1.5004    0.0000 C   0  0  0  0  0  0  0  0  0  0  0  0
   -3.8967    0.7484    0.0000 C   0  0  0  0  0  0  0  0  0  0  0  0
   -5.1969    1.4963    0.0000 C   0  0  0  0  0  0  0  0  0  0  0  0
   -5.1993    2.9963    0.0000 C   0  0  0  0  0  0  0  0  0  0  0  0
   -3.9015    3.7484    0.0000 C   0  0  0  0  0  0  0  0  0  0  0  0
   -2.6012    3.0004    0.0000 C   0  0  0  0  0  0  0  0  0  0  0  0
    5.1873   -7.5117    0.0000 C   0  0  0  0  0  0  0  0  0  0  0  0
    5.1894   -6.0109    0.0000 C   0  0  0  0  0  0  0  0  0  0  0  0
    3.8912   -5.2578    0.0000 N   0  0  0  0  0  0  0  0  0  0  0  0
    6.2297   -5.4127    0.0000 O   0  0  0  0  0  0  0  0  0  0  0  0
    4.4293   -9.7955    0.0000 C   0  0  0  0  0  0  0  0  0  0  0  0
    3.9707   -8.3673    0.0000 N   0  0  0  0  0  0  0  0  0  0  0  0
    6.3978   -8.3758    0.0000 C   0  0  0  0  0  0  0  0  0  0  0  0
    5.9293   -9.8007    0.0000 N   0  0  0  0  0  0  0  0  0  0  0  0
    6.8072  -11.0179    0.0000 C   0  0  0  0  0  0  0  0  0  0  0  0
    3.7206  -10.7639    0.0000 C   0  0  0  0  0  0  0  0  0  0  0  0
    3.8933   -3.7570    0.0000 C   0  0  0  0  0  0  0  0  0  0  0  0
    2.5951   -3.0039    0.0000 C   0  0  0  0  0  0  0  0  0  0  0  0
    2.5973   -1.5031    0.0000 C   0  0  0  0  0  0  0  0  0  0  0  0
    6.2979  -12.4235    0.0000 C   0  0  0  0  0  0  0  0  0  0  0  0
    7.2644  -13.5706    0.0000 C   0  0  0  0  0  0  0  0  0  0  0  0
    8.2847  -10.7495    0.0000 C   0  0  0  0  0  0  0  0  0  0  0  0
   -1.5630    3.6021    0.0000 C   0  0  0  0  0  0  0  0  0  0  0  0
   -3.9034    4.9484    0.0000 C   0  0  0  0  0  0  0  0  0  0  0  0
    7.5381   -8.0021    0.0000 C   0  0  0  0  0  0  0  0  0  0  0  0
    9.2512  -11.8966    0.0000 C   0  0  0  0  0  0  0  0  0  0  0  0
    8.7411  -13.3071    0.0000 C   0  0  0  0  0  0  0  0  0  0  0  0
    1.5548   -3.6021    0.0000 O   0  0  0  0  0  0  0  0  0  0  0  0
   14.2512   -4.1608    0.0000 Cl  0  0  0  0  0  0  0  0  0  0  0  0
   11.7512   -4.1608    0.0000 Cl  0  0  0  0  0  0  0  0  0  0  0  0
  1  6  1  0
  8  9  2  0
  2  3  1  0
  9 10  1  0
 18 13  1  0
 13 19  2  0
 19 20  1  0
 20 17  1  0
  3  4  1  0
 20 21  1  0
 10 11  2  0
 17 22  1  0
  4  5  1  0
 15 23  1  0
 11 12  1  0
 23 24  1  0
 12  7  2  0
 24 25  1  0
 25  1  1  0
  4  7  1  0
 21 26  2  0
  5  6  1  0
 26 27  1  0
 27 33  2  0
  1  2  1  0
 32 28  2  0
 28 21  1  0
 13 14  1  0
 12 29  1  0
 11 30  1  0
 14 15  1  0
 19 31  1  0
 32 33  1  0
  7  8  1  0
 14 16  2  0
 17 18  2  0
 24 34  1  0
M  END
>  <ACTIVITY>  (49) 
247.6

$$$$

     RDKit          2D

 39 39  0  0  0  0  0  0  0  0999 V2000
    1.2990   -0.7500    0.0000 N   0  0  0  0  0  0  0  0  0  0  0  0
    1.2990    0.7500    0.0000 C   0  0  0  0  0  0  0  0  0  0  0  0
    0.0000    1.5000    0.0000 C   0  0  0  0  0  0  0  0  0  0  0  0
   -1.2990    0.7500    0.0000 N   0  0  0  0  0  0  0  0  0  0  0  0
   -1.2990   -0.7500    0.0000 C   0  0  0  0  0  0  0  0  0  0  0  0
    0.0000   -1.5000    0.0000 C   0  0  0  0  0  0  0  0  0  0  0  0
   -2.5987    1.5004    0.0000 C   0  0  0  0  0  0  0  0  0  0  0  0
   -3.8967    0.7484    0.0000 C   0  0  0  0  0  0  0  0  0  0  0  0
   -5.1969    1.4963    0.0000 C   0  0  0  0  0  0  0  0  0  0  0  0
   -5.1993    2.9963    0.0000 C   0  0  0  0  0  0  0  0  0  0  0  0
   -3.9015    3.7484    0.0000 C   0  0  0  0  0  0  0  0  0  0  0  0
   -2.6012    3.0004    0.0000 C   0  0  0  0  0  0  0  0  0  0  0  0
    5.1873   -7.5117    0.0000 C   0  0  0  0  0  0  0  0  0  0  0  0
    5.1894   -6.0109    0.0000 C   0  0  0  0  0  0  0  0  0  0  0  0
    3.8912   -5.2578    0.0000 N   0  0  0  0  0  0  0  0  0  0  0  0
    6.2297   -5.4127    0.0000 O   0  0  0  0  0  0  0  0  0  0  0  0
    4.4293   -9.7955    0.0000 C   0  0  0  0  0  0  0  0  0  0  0  0
    3.9707   -8.3673    0.0000 N   0  0  0  0  0  0  0  0  0  0  0  0
    6.3978   -8.3758    0.0000 C   0  0  0  0  0  0  0  0  0  0  0  0
    5.9293   -9.8007    0.0000 N   0  0  0  0  0  0  0  0  0  0  0  0
    6.8072  -11.0179    0.0000 C   0  0  0  0  0  0  0  0  0  0  0  0
    3.5419  -11.0027    0.0000 C   0  0  0  0  0  0  0  0  0  0  0  0
    3.8933   -3.7570    0.0000 C   0  0  0  0  0  0  0  0  0  0  0  0
    2.5951   -3.0039    0.0000 C   0  0  0  0  0  0  0  0  0  0  0  0
    2.5973   -1.5031    0.0000 C   0  0  0  0  0  0  0  0  0  0  0  0
    6.2979  -12.4235    0.0000 C   0  0  0  0  0  0  0  0  0  0  0  0
    7.2644  -13.5706    0.0000 C   0  0  0  0  0  0  0  0  0  0  0  0
    8.2847  -10.7495    0.0000 C   0  0  0  0  0  0  0  0  0  0  0  0
   -1.5630    3.6021    0.0000 C   0  0  0  0  0  0  0  0  0  0  0  0
   -3.9034    4.9484    0.0000 Cl  0  0  0  0  0  0  0  0  0  0  0  0
    7.5381   -8.0021    0.0000 C   0  0  0  0  0  0  0  0  0  0  0  0
    9.2512  -11.8966    0.0000 C   0  0  0  0  0  0  0  0  0  0  0  0
    8.7411  -13.3071    0.0000 C   0  0  0  0  0  0  0  0  0  0  0  0
    1.5548   -3.6021    0.0000 O   0  0  0  0  0  0  0  0  0  0  0  0
    2.0501  -10.8385    0.0000 C   0  0  0  0  0  0  0  0  0  0  0  0
    1.3394  -11.8054    0.0000 C   0  0  0  0  0  0  0  0  0  0  0  0
   16.7512   -4.1608    0.0000 Cl  0  0  0  0  0  0  0  0  0  0  0  0
   14.2512   -4.1608    0.0000 Cl  0  0  0  0  0  0  0  0  0  0  0  0
   11.7512   -4.1608    0.0000 Cl  0  0  0  0  0  0  0  0  0  0  0  0
  2  3  1  0
  9 10  2  0
 18 13  1  0
 13 19  2  0
 19 20  1  0
 20 17  1  0
  3  4  1  0
 20 21  1  0
 10 11  1  0
 17 22  1  0
  4  5  1  0
 15 23  1  0
 11 12  2  0
 23 24  1  0
 12  7  1  0
 24 25  1  0
 25  1  1  0
  4  7  1  0
 21 26  2  0
  5  6  1  0
 26 27  1  0
 27 33  2  0
  1  2  1  0
 32 28  2  0
 28 21  1  0
 13 14  1  0
 12 29  1  0
 11 30  1  0
 14 15  1  0
 19 31  1  0
 32 33  1  0
  7  8  2  0
 14 16  2  0
 17 18  2  0
 24 34  1  0
  1  6  1  0
 22 35  1  0
  8  9  1  0
 35 36  1  0
M  END
>  <ACTIVITY>  (50) 
201

$$$$

     RDKit          2D

 43 43  0  0  0  0  0  0  0  0999 V2000
    1.2990   -0.7500    0.0000 N   0  0  0  0  0  0  0  0  0  0  0  0
    1.2990    0.7500    0.0000 C   0  0  0  0  0  0  0  0  0  0  0  0
    0.0000    1.5000    0.0000 C   0  0  0  0  0  0  0  0  0  0  0  0
   -1.2990    0.7500    0.0000 N   0  0  0  0  0  0  0  0  0  0  0  0
   -1.2990   -0.7500    0.0000 C   0  0  0  0  0  0  0  0  0  0  0  0
    0.0000   -1.5000    0.0000 C   0  0  0  0  0  0  0  0  0  0  0  0
   -2.5987    1.5004    0.0000 C   0  0  0  0  0  0  0  0  0  0  0  0
   -3.8967    0.7484    0.0000 C   0  0  0  0  0  0  0  0  0  0  0  0
   -5.1969    1.4963    0.0000 C   0  0  0  0  0  0  0  0  0  0  0  0
   -5.1993    2.9963    0.0000 C   0  0  0  0  0  0  0  0  0  0  0  0
   -3.9015    3.7484    0.0000 C   0  0  0  0  0  0  0  0  0  0  0  0
   -2.6012    3.0004    0.0000 C   0  0  0  0  0  0  0  0  0  0  0  0
    5.1873   -7.5117    0.0000 C   0  0  0  0  0  0  0  0  0  0  0  0
    5.1894   -6.0109    0.0000 C   0  0  0  0  0  0  0  0  0  0  0  0
    3.8912   -5.2578    0.0000 N   0  0  0  0  0  0  0  0  0  0  0  0
    6.2297   -5.4127    0.0000 O   0  0  0  0  0  0  0  0  0  0  0  0
    4.4293   -9.7955    0.0000 C   0  0  0  0  0  0  0  0  0  0  0  0
    3.9707   -8.3673    0.0000 N   0  0  0  0  0  0  0  0  0  0  0  0
    6.3978   -8.3758    0.0000 C   0  0  0  0  0  0  0  0  0  0  0  0
    5.9293   -9.8007    0.0000 N   0  0  0  0  0  0  0  0  0  0  0  0
    6.8072  -11.0179    0.0000 C   0  0  0  0  0  0  0  0  0  0  0  0
    3.5430  -11.0066    0.0000 C   0  0  0  0  0  0  0  0  0  0  0  0
    3.8933   -3.7570    0.0000 C   0  0  0  0  0  0  0  0  0  0  0  0
    2.5951   -3.0039    0.0000 C   0  0  0  0  0  0  0  0  0  0  0  0
    2.5973   -1.5031    0.0000 C   0  0  0  0  0  0  0  0  0  0  0  0
    8.3017  -10.9783    0.0000 C   0  0  0  0  0  0  0  0  0  0  0  0
    9.0851  -12.2574    0.0000 C   0  0  0  0  0  0  0  0  0  0  0  0
    6.0861  -12.3352    0.0000 C   0  0  0  0  0  0  0  0  0  0  0  0
   -1.5630    3.6021    0.0000 Cl  0  0  0  0  0  0  0  0  0  0  0  0
   -3.9034    4.9484    0.0000 Cl  0  0  0  0  0  0  0  0  0  0  0  0
    7.5381   -8.0021    0.0000 C   0  0  0  0  0  0  0  0  0  0  0  0
    6.8696  -13.6144    0.0000 C   0  0  0  0  0  0  0  0  0  0  0  0
    8.3691  -13.5755    0.0000 C   0  0  0  0  0  0  0  0  0  0  0  0
    1.5548   -3.6021    0.0000 O   0  0  0  0  0  0  0  0  0  0  0  0
    4.0425  -12.4157    0.0000 C   0  0  0  0  0  0  0  0  0  0  0  0
    3.0681  -13.5560    0.0000 C   0  0  0  0  0  0  0  0  0  0  0  0
    1.5932  -13.2823    0.0000 C   0  0  0  0  0  0  0  0  0  0  0  0
    1.0929  -11.8682    0.0000 C   0  0  0  0  0  0  0  0  0  0  0  0
    2.0673  -10.7279    0.0000 C   0  0  0  0  0  0  0  0  0  0  0  0
   19.0851   -4.1826    0.0000 Cl  0  0  0  0  0  0  0  0  0  0  0  0
   16.5851   -4.1826    0.0000 Cl  0  0  0  0  0  0  0  0  0  0  0  0
   14.0851   -4.1826    0.0000 Cl  0  0  0  0  0  0  0  0  0  0  0  0
   11.5851   -4.1826    0.0000 Cl  0  0  0  0  0  0  0  0  0  0  0  0
 13 19  2  0
 19 20  1  0
 20 17  1  0
  3  4  1  0
 20 21  1  0
 10 11  1  0
 17 22  1  0
  4  5  1  0
 15 23  1  0
 11 12  2  0
 23 24  1  0
 12  7  1  0
 24 25  1  0
 25  1  1  0
  4  7  1  0
 21 26  2  0
  5  6  1  0
 26 27  1  0
 27 33  2  0
  1  2  1  0
 32 28  2  0
 28 21  1  0
 13 14  1  0
 12 29  1  0
 11 30  1  0
 14 15  1  0
 19 31  1  0
 32 33  1  0
  7  8  2  0
 14 16  2  0
 17 18  2  0
 24 34  1  0
  1  6  1  0
 22 35  2  0
  8  9  1  0
 35 36  1  0
  2  3  1  0
 36 37  2  0
  9 10  2  0
 37 38  1  0
 18 13  1  0
 38 39  2  0
 39 22  1  0
M  END
>  <ACTIVITY>  (51) 
24

$$$$

     RDKit          2D

 42 43  0  0  0  0  0  0  0  0999 V2000
    1.2990   -0.7500    0.0000 N   0  0  0  0  0  0  0  0  0  0  0  0
    1.2990    0.7500    0.0000 C   0  0  0  0  0  0  0  0  0  0  0  0
    0.0000    1.5000    0.0000 C   0  0  0  0  0  0  0  0  0  0  0  0
   -1.2990    0.7500    0.0000 N   0  0  0  0  0  0  0  0  0  0  0  0
   -1.2990   -0.7500    0.0000 C   0  0  0  0  0  0  0  0  0  0  0  0
    0.0000   -1.5000    0.0000 C   0  0  0  0  0  0  0  0  0  0  0  0
   -2.5987    1.5004    0.0000 C   0  0  0  0  0  0  0  0  0  0  0  0
   -3.8967    0.7484    0.0000 C   0  0  0  0  0  0  0  0  0  0  0  0
   -5.1969    1.4963    0.0000 C   0  0  0  0  0  0  0  0  0  0  0  0
   -5.1993    2.9963    0.0000 C   0  0  0  0  0  0  0  0  0  0  0  0
   -3.9015    3.7484    0.0000 C   0  0  0  0  0  0  0  0  0  0  0  0
   -2.6012    3.0004    0.0000 C   0  0  0  0  0  0  0  0  0  0  0  0
    5.1873   -7.5117    0.0000 C   0  0  0  0  0  0  0  0  0  0  0  0
    5.1894   -6.0109    0.0000 C   0  0  0  0  0  0  0  0  0  0  0  0
    3.8912   -5.2578    0.0000 N   0  0  0  0  0  0  0  0  0  0  0  0
    6.2297   -5.4127    0.0000 O   0  0  0  0  0  0  0  0  0  0  0  0
    4.4293   -9.7955    0.0000 C   0  0  0  0  0  0  0  0  0  0  0  0
    3.9707   -8.3673    0.0000 N   0  0  0  0  0  0  0  0  0  0  0  0
    6.3978   -8.3758    0.0000 C   0  0  0  0  0  0  0  0  0  0  0  0
    5.9293   -9.8007    0.0000 N   0  0  0  0  0  0  0  0  0  0  0  0
    6.8072  -11.0179    0.0000 C   0  0  0  0  0  0  0  0  0  0  0  0
    3.5430  -11.0066    0.0000 C   0  0  0  0  0  0  0  0  0  0  0  0
    3.8933   -3.7570    0.0000 C   0  0  0  0  0  0  0  0  0  0  0  0
    2.5951   -3.0039    0.0000 C   0  0  0  0  0  0  0  0  0  0  0  0
    2.5973   -1.5031    0.0000 C   0  0  0  0  0  0  0  0  0  0  0  0
    8.3017  -10.9783    0.0000 C   0  0  0  0  0  0  0  0  0  0  0  0
    9.0851  -12.2574    0.0000 C   0  0  0  0  0  0  0  0  0  0  0  0
    6.0861  -12.3352    0.0000 C   0  0  0  0  0  0  0  0  0  0  0  0
   -1.5630    3.6021    0.0000 C   0  0  0  0  0  0  0  0  0  0  0  0
   -3.9034    4.9484    0.0000 Cl  0  0  0  0  0  0  0  0  0  0  0  0
    7.5381   -8.0021    0.0000 C   0  0  0  0  0  0  0  0  0  0  0  0
    6.8696  -13.6144    0.0000 C   0  0  0  0  0  0  0  0  0  0  0  0
    8.3691  -13.5755    0.0000 C   0  0  0  0  0  0  0  0  0  0  0  0
    1.5548   -3.6021    0.0000 O   0  0  0  0  0  0  0  0  0  0  0  0
    4.0425  -12.4157    0.0000 C   0  0  0  0  0  0  0  0  0  0  0  0
    3.0681  -13.5560    0.0000 C   0  0  0  0  0  0  0  0  0  0  0  0
    1.5932  -13.2823    0.0000 C   0  0  0  0  0  0  0  0  0  0  0  0
    1.0929  -11.8682    0.0000 C   0  0  0  0  0  0  0  0  0  0  0  0
    2.0673  -10.7279    0.0000 C   0  0  0  0  0  0  0  0  0  0  0  0
   16.5851   -4.1826    0.0000 Cl  0  0  0  0  0  0  0  0  0  0  0  0
   14.0851   -4.1826    0.0000 Cl  0  0  0  0  0  0  0  0  0  0  0  0
   11.5851   -4.1826    0.0000 Cl  0  0  0  0  0  0  0  0  0  0  0  0
 13 19  2  0
 19 20  1  0
 20 17  1  0
  3  4  1  0
 20 21  1  0
 10 11  1  0
 17 22  1  0
  4  5  1  0
 15 23  1  0
 11 12  2  0
 23 24  1  0
 12  7  1  0
 24 25  1  0
 25  1  1  0
  4  7  1  0
 21 26  2  0
  5  6  1  0
 26 27  1  0
 27 33  2  0
  1  2  1  0
 32 28  2  0
 28 21  1  0
 13 14  1  0
 12 29  1  0
 11 30  1  0
 14 15  1  0
 19 31  1  0
 32 33  1  0
  7  8  2  0
 14 16  2  0
 17 18  2  0
 24 34  1  0
  1  6  1  0
 22 35  2  0
  8  9  1  0
 35 36  1  0
  2  3  1  0
 36 37  2  0
  9 10  2  0
 37 38  1  0
 18 13  1  0
 38 39  2  0
 39 22  1  0
M  END
>  <ACTIVITY>  (52) 
57

$$$$

     RDKit          2D

 41 43  0  0  0  0  0  0  0  0999 V2000
    1.2990   -0.7500    0.0000 N   0  0  0  0  0  0  0  0  0  0  0  0
    1.2990    0.7500    0.0000 C   0  0  0  0  0  0  0  0  0  0  0  0
    0.0000    1.5000    0.0000 C   0  0  0  0  0  0  0  0  0  0  0  0
   -1.2990    0.7500    0.0000 N   0  0  0  0  0  0  0  0  0  0  0  0
   -1.2990   -0.7500    0.0000 C   0  0  0  0  0  0  0  0  0  0  0  0
    0.0000   -1.5000    0.0000 C   0  0  0  0  0  0  0  0  0  0  0  0
   -2.5987    1.5004    0.0000 C   0  0  0  0  0  0  0  0  0  0  0  0
   -3.8967    0.7484    0.0000 C   0  0  0  0  0  0  0  0  0  0  0  0
   -5.1969    1.4963    0.0000 C   0  0  0  0  0  0  0  0  0  0  0  0
   -5.1993    2.9963    0.0000 C   0  0  0  0  0  0  0  0  0  0  0  0
   -3.9015    3.7484    0.0000 C   0  0  0  0  0  0  0  0  0  0  0  0
   -2.6012    3.0004    0.0000 C   0  0  0  0  0  0  0  0  0  0  0  0
    5.1873   -7.5117    0.0000 C   0  0  0  0  0  0  0  0  0  0  0  0
    5.1894   -6.0109    0.0000 C   0  0  0  0  0  0  0  0  0  0  0  0
    3.8912   -5.2578    0.0000 N   0  0  0  0  0  0  0  0  0  0  0  0
    6.2297   -5.4127    0.0000 O   0  0  0  0  0  0  0  0  0  0  0  0
    4.4293   -9.7955    0.0000 C   0  0  0  0  0  0  0  0  0  0  0  0
    3.9707   -8.3673    0.0000 N   0  0  0  0  0  0  0  0  0  0  0  0
    6.3978   -8.3758    0.0000 C   0  0  0  0  0  0  0  0  0  0  0  0
    5.9293   -9.8007    0.0000 N   0  0  0  0  0  0  0  0  0  0  0  0
    6.8072  -11.0179    0.0000 C   0  0  0  0  0  0  0  0  0  0  0  0
    3.5430  -11.0066    0.0000 C   0  0  0  0  0  0  0  0  0  0  0  0
    3.8933   -3.7570    0.0000 C   0  0  0  0  0  0  0  0  0  0  0  0
    2.5951   -3.0039    0.0000 C   0  0  0  0  0  0  0  0  0  0  0  0
    2.5973   -1.5031    0.0000 C   0  0  0  0  0  0  0  0  0  0  0  0
    8.3017  -10.9783    0.0000 C   0  0  0  0  0  0  0  0  0  0  0  0
    9.0851  -12.2574    0.0000 C   0  0  0  0  0  0  0  0  0  0  0  0
    6.0861  -12.3352    0.0000 C   0  0  0  0  0  0  0  0  0  0  0  0
   -1.5630    3.6021    0.0000 C   0  0  0  0  0  0  0  0  0  0  0  0
    7.5381   -8.0021    0.0000 C   0  0  0  0  0  0  0  0  0  0  0  0
    6.8696  -13.6144    0.0000 C   0  0  0  0  0  0  0  0  0  0  0  0
    8.3691  -13.5755    0.0000 C   0  0  0  0  0  0  0  0  0  0  0  0
    1.5548   -3.6021    0.0000 O   0  0  0  0  0  0  0  0  0  0  0  0
    4.0425  -12.4157    0.0000 C   0  0  0  0  0  0  0  0  0  0  0  0
    3.0681  -13.5560    0.0000 C   0  0  0  0  0  0  0  0  0  0  0  0
    1.5932  -13.2823    0.0000 C   0  0  0  0  0  0  0  0  0  0  0  0
    1.0929  -11.8682    0.0000 C   0  0  0  0  0  0  0  0  0  0  0  0
    2.0673  -10.7279    0.0000 C   0  0  0  0  0  0  0  0  0  0  0  0
   -3.9034    4.9484    0.0000 C   0  0  0  0  0  0  0  0  0  0  0  0
   14.0851   -4.1826    0.0000 Cl  0  0  0  0  0  0  0  0  0  0  0  0
   11.5851   -4.1826    0.0000 Cl  0  0  0  0  0  0  0  0  0  0  0  0
 13 19  2  0
 19 20  1  0
 20 17  1  0
  3  4  1  0
 20 21  1  0
 10 11  1  0
 17 22  1  0
  4  5  1  0
 15 23  1  0
 11 12  2  0
 23 24  1  0
 12  7  1  0
 24 25  1  0
 25  1  1  0
  4  7  1  0
 21 26  2  0
  5  6  1  0
 26 27  1  0
 27 32  2  0
  1  2  1  0
 31 28  2  0
 28 21  1  0
 13 14  1  0
 12 29  1  0
 19 30  1  0
 31 32  1  0
 14 15  1  0
  7  8  2  0
 14 16  2  0
 24 33  1  0
 17 18  2  0
 22 34  2  0
  1  6  1  0
 34 35  1  0
  8  9  1  0
 35 36  2  0
  2  3  1  0
 36 37  1  0
  9 10  2  0
 37 38  2  0
 38 22  1  0
 18 13  1  0
 11 39  1  0
M  END
>  <ACTIVITY>  (53) 
58.6

$$$$

     RDKit          2D

 33 33  0  0  0  0  0  0  0  0999 V2000
    5.1945   -3.0045    0.0000 N   0  0  0  0  0  0  0  0  0  0  0  0
    5.1969   -1.5045    0.0000 C   0  0  0  0  0  0  0  0  0  0  0  0
    3.8991   -0.7525    0.0000 C   0  0  0  0  0  0  0  0  0  0  0  0
    2.5987   -1.5004    0.0000 N   0  0  0  0  0  0  0  0  0  0  0  0
    2.5965   -3.0004    0.0000 C   0  0  0  0  0  0  0  0  0  0  0  0
    3.8943   -3.7525    0.0000 C   0  0  0  0  0  0  0  0  0  0  0  0
    1.2990   -0.7500    0.0000 C   0  0  0  0  0  0  0  0  0  0  0  0
    1.2990    0.7500    0.0000 C   0  0  0  0  0  0  0  0  0  0  0  0
    0.0000    1.5000    0.0000 C   0  0  0  0  0  0  0  0  0  0  0  0
   -1.2990    0.7500    0.0000 C   0  0  0  0  0  0  0  0  0  0  0  0
   -1.2990   -0.7500    0.0000 C   0  0  0  0  0  0  0  0  0  0  0  0
    0.0000   -1.5000    0.0000 C   0  0  0  0  0  0  0  0  0  0  0  0
   12.9945   -3.0033    0.0000 C   0  0  0  0  0  0  0  0  0  0  0  0
   11.6946   -3.7535    0.0000 C   0  0  0  0  0  0  0  0  0  0  0  0
   10.3945   -3.0037    0.0000 N   0  0  0  0  0  0  0  0  0  0  0  0
   11.6948   -4.9535    0.0000 O   0  0  0  0  0  0  0  0  0  0  0  0
   14.5962   -1.2075    0.0000 C   0  0  0  0  0  0  0  0  0  0  0  0
   13.1295   -1.5222    0.0000 N   0  0  0  0  0  0  0  0  0  0  0  0
   14.3470   -3.6217    0.0000 C   0  0  0  0  0  0  0  0  0  0  0  0
   15.3486   -2.5051    0.0000 N   0  0  0  0  0  0  0  0  0  0  0  0
   16.8393   -2.6558    0.0000 C   0  0  0  0  0  0  0  0  0  0  0  0
   15.0822   -0.1103    0.0000 C   0  0  0  0  0  0  0  0  0  0  0  0
    9.0946   -3.7539    0.0000 C   0  0  0  0  0  0  0  0  0  0  0  0
    7.7945   -3.0041    0.0000 C   0  0  0  0  0  0  0  0  0  0  0  0
    6.4947   -3.7543    0.0000 C   0  0  0  0  0  0  0  0  0  0  0  0
    0.0000   -2.7000    0.0000 C   0  0  0  0  0  0  0  0  0  0  0  0
   14.5918   -4.7965    0.0000 C   0  0  0  0  0  0  0  0  0  0  0  0
    7.7943   -1.8041    0.0000 O   0  0  0  0  0  0  0  0  0  0  0  0
   -2.3383   -1.3500    0.0000 C   0  0  0  0  0  0  0  0  0  0  0  0
   17.7174   -1.4387    0.0000 C   0  0  0  0  0  0  0  0  0  0  0  0
   18.9113   -1.5594    0.0000 C   0  0  0  0  0  0  0  0  0  0  0  0
   24.2106   -1.8771    0.0000 Cl  0  0  0  0  0  0  0  0  0  0  0  0
   21.7106   -1.8771    0.0000 Cl  0  0  0  0  0  0  0  0  0  0  0  0
  7  8  2  0
 14 16  2  0
 17 18  2  0
  1  6  1  0
  8  9  1  0
  2  3  1  0
  9 10  2  0
 18 13  1  0
 13 19  2  0
 19 20  1  0
 20 17  1  0
  3  4  1  0
 20 21  1  0
 10 11  1  0
 17 22  1  0
  4  5  1  0
 15 23  1  0
 11 12  2  0
 23 24  1  0
 12  7  1  0
 24 25  1  0
 25  1  1  0
  4  7  1  0
 12 26  1  0
  5  6  1  0
 19 27  1  0
  1  2  1  0
 24 28  1  0
 13 14  1  0
 11 29  1  0
 21 30  1  0
 14 15  1  0
 30 31  1  0
M  END
>  <ACTIVITY>  (54) 
839.9

$$$$

     RDKit          2D

 34 34  0  0  0  0  0  0  0  0999 V2000
    1.2990   -0.7500    0.0000 N   0  0  0  0  0  0  0  0  0  0  0  0
    0.0000   -1.5000    0.0000 C   0  0  0  0  0  0  0  0  0  0  0  0
   -1.2990   -0.7500    0.0000 C   0  0  0  0  0  0  0  0  0  0  0  0
   -1.2990    0.7500    0.0000 N   0  0  0  0  0  0  0  0  0  0  0  0
    0.0000    1.5000    0.0000 C   0  0  0  0  0  0  0  0  0  0  0  0
    1.2990    0.7500    0.0000 C   0  0  0  0  0  0  0  0  0  0  0  0
   -2.5987    1.5004    0.0000 C   0  0  0  0  0  0  0  0  0  0  0  0
   -3.8967    0.7484    0.0000 C   0  0  0  0  0  0  0  0  0  0  0  0
   -5.1969    1.4963    0.0000 C   0  0  0  0  0  0  0  0  0  0  0  0
   -5.1993    2.9963    0.0000 C   0  0  0  0  0  0  0  0  0  0  0  0
   -3.9015    3.7484    0.0000 C   0  0  0  0  0  0  0  0  0  0  0  0
   -2.6012    3.0004    0.0000 C   0  0  0  0  0  0  0  0  0  0  0  0
    5.1873   -7.5117    0.0000 C   0  0  0  0  0  0  0  0  0  0  0  0
    5.1894   -6.0109    0.0000 C   0  0  0  0  0  0  0  0  0  0  0  0
    3.8912   -5.2578    0.0000 N   0  0  0  0  0  0  0  0  0  0  0  0
    6.2297   -5.4127    0.0000 O   0  0  0  0  0  0  0  0  0  0  0  0
    4.4293   -9.7955    0.0000 C   0  0  0  0  0  0  0  0  0  0  0  0
    3.9707   -8.3673    0.0000 N   0  0  0  0  0  0  0  0  0  0  0  0
    6.3978   -8.3758    0.0000 C   0  0  0  0  0  0  0  0  0  0  0  0
    5.9293   -9.8007    0.0000 N   0  0  0  0  0  0  0  0  0  0  0  0
    6.8032  -11.0177    0.0000 C   0  0  0  0  0  0  0  0  0  0  0  0
    3.7206  -10.7639    0.0000 C   0  0  0  0  0  0  0  0  0  0  0  0
    3.8933   -3.7570    0.0000 C   0  0  0  0  0  0  0  0  0  0  0  0
    2.5951   -3.0039    0.0000 C   0  0  0  0  0  0  0  0  0  0  0  0
    2.5973   -1.5031    0.0000 C   0  0  0  0  0  0  0  0  0  0  0  0
   -1.5630    3.6021    0.0000 C   0  0  0  0  0  0  0  0  0  0  0  0
    7.5381   -8.0021    0.0000 C   0  0  0  0  0  0  0  0  0  0  0  0
    1.5548   -3.6021    0.0000 O   0  0  0  0  0  0  0  0  0  0  0  0
   -3.9034    4.9484    0.0000 C   0  0  0  0  0  0  0  0  0  0  0  0
    6.1860  -12.3858    0.0000 C   0  0  0  0  0  0  0  0  0  0  0  0
    6.8860  -13.3605    0.0000 C   0  0  0  0  0  0  0  0  0  0  0  0
    4.9920  -12.5049    0.0000 C   0  0  0  0  0  0  0  0  0  0  0  0
   12.8239   -4.1779    0.0000 Cl  0  0  0  0  0  0  0  0  0  0  0  0
   10.3239   -4.1779    0.0000 Cl  0  0  0  0  0  0  0  0  0  0  0  0
 14 16  2  0
 17 18  2  0
  1  6  1  0
  8  9  2  0
  2  3  1  0
  9 10  1  0
 18 13  1  0
 13 19  2  0
 19 20  1  0
 20 17  1  0
  3  4  1  0
 20 21  1  0
 10 11  2  0
 17 22  1  0
  4  5  1  0
 15 23  1  0
 11 12  1  0
 23 24  1  0
 12  7  2  0
 24 25  1  0
 25  1  1  0
  4  7  1  0
 12 26  1  0
  5  6  1  0
 19 27  1  0
  1  2  1  0
 24 28  1  0
 13 14  1  0
 11 29  1  0
 21 30  1  0
 14 15  1  0
 30 31  1  0
  7  8  1  0
 30 32  1  0
M  END
>  <ACTIVITY>  (55) 
1011

$$$$

     RDKit          2D

 36 36  0  0  0  0  0  0  0  0999 V2000
    1.2990   -0.7500    0.0000 N   0  0  0  0  0  0  0  0  0  0  0  0
    0.0000   -1.5000    0.0000 C   0  0  0  0  0  0  0  0  0  0  0  0
   -1.2990   -0.7500    0.0000 C   0  0  0  0  0  0  0  0  0  0  0  0
   -1.2990    0.7500    0.0000 N   0  0  0  0  0  0  0  0  0  0  0  0
    0.0000    1.5000    0.0000 C   0  0  0  0  0  0  0  0  0  0  0  0
    1.2990    0.7500    0.0000 C   0  0  0  0  0  0  0  0  0  0  0  0
   -2.5987    1.5004    0.0000 C   0  0  0  0  0  0  0  0  0  0  0  0
   -3.8967    0.7484    0.0000 C   0  0  0  0  0  0  0  0  0  0  0  0
   -5.1969    1.4963    0.0000 C   0  0  0  0  0  0  0  0  0  0  0  0
   -5.1993    2.9963    0.0000 C   0  0  0  0  0  0  0  0  0  0  0  0
   -3.9015    3.7484    0.0000 C   0  0  0  0  0  0  0  0  0  0  0  0
   -2.6012    3.0004    0.0000 C   0  0  0  0  0  0  0  0  0  0  0  0
    5.1873   -7.5117    0.0000 C   0  0  0  0  0  0  0  0  0  0  0  0
    5.1894   -6.0109    0.0000 C   0  0  0  0  0  0  0  0  0  0  0  0
    3.8912   -5.2578    0.0000 N   0  0  0  0  0  0  0  0  0  0  0  0
    6.2297   -5.4127    0.0000 O   0  0  0  0  0  0  0  0  0  0  0  0
    4.4293   -9.7955    0.0000 C   0  0  0  0  0  0  0  0  0  0  0  0
    3.9707   -8.3673    0.0000 N   0  0  0  0  0  0  0  0  0  0  0  0
    6.3978   -8.3758    0.0000 C   0  0  0  0  0  0  0  0  0  0  0  0
    5.9293   -9.8007    0.0000 N   0  0  0  0  0  0  0  0  0  0  0  0
    6.8072  -11.0179    0.0000 C   0  0  0  0  0  0  0  0  0  0  0  0
    3.7206  -10.7639    0.0000 C   0  0  0  0  0  0  0  0  0  0  0  0
    3.8933   -3.7570    0.0000 C   0  0  0  0  0  0  0  0  0  0  0  0
    2.5951   -3.0039    0.0000 C   0  0  0  0  0  0  0  0  0  0  0  0
    2.5973   -1.5031    0.0000 C   0  0  0  0  0  0  0  0  0  0  0  0
   -1.5630    3.6021    0.0000 C   0  0  0  0  0  0  0  0  0  0  0  0
    7.5381   -8.0021    0.0000 C   0  0  0  0  0  0  0  0  0  0  0  0
    1.5548   -3.6021    0.0000 O   0  0  0  0  0  0  0  0  0  0  0  0
   -3.9034    4.9484    0.0000 Cl  0  0  0  0  0  0  0  0  0  0  0  0
    6.4380  -12.4537    0.0000 C   0  0  0  0  0  0  0  0  0  0  0  0
    7.7140  -13.2422    0.0000 C   0  0  0  0  0  0  0  0  0  0  0  0
    8.8583  -12.2722    0.0000 C   0  0  0  0  0  0  0  0  0  0  0  0
    8.2894  -10.8843    0.0000 C   0  0  0  0  0  0  0  0  0  0  0  0
   16.3583   -3.9965    0.0000 Cl  0  0  0  0  0  0  0  0  0  0  0  0
   13.8583   -3.9965    0.0000 Cl  0  0  0  0  0  0  0  0  0  0  0  0
   11.3583   -3.9965    0.0000 Cl  0  0  0  0  0  0  0  0  0  0  0  0
 17 18  2  0
  1  6  1  0
  8  9  2  0
  2  3  1  0
  9 10  1  0
 18 13  1  0
 13 19  2  0
 19 20  1  0
 20 17  1  0
  3  4  1  0
 20 21  1  0
 10 11  2  0
 17 22  1  0
  4  5  1  0
 15 23  1  0
 11 12  1  0
 23 24  1  0
 12  7  2  0
 24 25  1  0
 25  1  1  0
  4  7  1  0
 12 26  1  0
  5  6  1  0
 19 27  1  0
  1  2  1  0
 24 28  1  0
 13 14  1  0
 11 29  1  0
 21 30  1  0
 14 15  1  0
  7  8  1  0
 14 16  2  0
 30 31  1  0
 31 32  1  0
 32 33  1  0
 33 21  1  0
M  END
>  <ACTIVITY>  (56) 
97.6

$$$$

     RDKit          2D

 40 39  0  0  0  0  0  0  0  0999 V2000
    1.2990   -0.7500    0.0000 N   0  0  0  0  0  0  0  0  0  0  0  0
    1.2990    0.7500    0.0000 C   0  0  0  0  0  0  0  0  0  0  0  0
    0.0000    1.5000    0.0000 C   0  0  0  0  0  0  0  0  0  0  0  0
   -1.2990    0.7500    0.0000 N   0  0  0  0  0  0  0  0  0  0  0  0
   -1.2990   -0.7500    0.0000 C   0  0  0  0  0  0  0  0  0  0  0  0
    0.0000   -1.5000    0.0000 C   0  0  0  0  0  0  0  0  0  0  0  0
   -2.5987    1.5004    0.0000 C   0  0  0  0  0  0  0  0  0  0  0  0
   -3.8967    0.7484    0.0000 C   0  0  0  0  0  0  0  0  0  0  0  0
   -5.1969    1.4963    0.0000 C   0  0  0  0  0  0  0  0  0  0  0  0
   -5.1993    2.9963    0.0000 C   0  0  0  0  0  0  0  0  0  0  0  0
   -3.9015    3.7484    0.0000 C   0  0  0  0  0  0  0  0  0  0  0  0
   -2.6012    3.0004    0.0000 C   0  0  0  0  0  0  0  0  0  0  0  0
    5.1873   -7.5117    0.0000 C   0  0  0  0  0  0  0  0  0  0  0  0
    5.1894   -6.0109    0.0000 C   0  0  0  0  0  0  0  0  0  0  0  0
    3.8912   -5.2578    0.0000 N   0  0  0  0  0  0  0  0  0  0  0  0
    6.2297   -5.4127    0.0000 O   0  0  0  0  0  0  0  0  0  0  0  0
    4.4293   -9.7955    0.0000 C   0  0  0  0  0  0  0  0  0  0  0  0
    3.9707   -8.3673    0.0000 N   0  0  0  0  0  0  0  0  0  0  0  0
    6.3978   -8.3758    0.0000 C   0  0  0  0  0  0  0  0  0  0  0  0
    5.9293   -9.8007    0.0000 N   0  0  0  0  0  0  0  0  0  0  0  0
    6.8072  -11.0179    0.0000 C   0  0  0  0  0  0  0  0  0  0  0  0
    3.7206  -10.7639    0.0000 C   0  0  0  0  0  0  0  0  0  0  0  0
    3.8933   -3.7570    0.0000 C   0  0  0  0  0  0  0  0  0  0  0  0
    2.5951   -3.0039    0.0000 C   0  0  0  0  0  0  0  0  0  0  0  0
    2.5973   -1.5031    0.0000 C   0  0  0  0  0  0  0  0  0  0  0  0
    6.2979  -12.4235    0.0000 C   0  0  0  0  0  0  0  0  0  0  0  0
    7.2644  -13.5706    0.0000 C   0  0  0  0  0  0  0  0  0  0  0  0
    8.2847  -10.7495    0.0000 C   0  0  0  0  0  0  0  0  0  0  0  0
   -1.5630    3.6021    0.0000 Cl  0  0  0  0  0  0  0  0  0  0  0  0
   -3.9034    4.9484    0.0000 Cl  0  0  0  0  0  0  0  0  0  0  0  0
    7.5381   -8.0021    0.0000 C   0  0  0  0  0  0  0  0  0  0  0  0
    9.2512  -11.8966    0.0000 C   0  0  0  0  0  0  0  0  0  0  0  0
    8.7411  -13.3071    0.0000 C   0  0  0  0  0  0  0  0  0  0  0  0
    1.5548   -3.6021    0.0000 O   0  0  0  0  0  0  0  0  0  0  0  0
    4.8206  -12.6884    0.0000 O   0  0  0  0  0  0  0  0  0  0  0  0
    4.4127  -13.8170    0.0000 C   0  0  0  0  0  0  0  0  0  0  0  0
   19.2512   -4.4254    0.0000 Cl  0  0  0  0  0  0  0  0  0  0  0  0
   16.7512   -4.4254    0.0000 Cl  0  0  0  0  0  0  0  0  0  0  0  0
   14.2512   -4.4254    0.0000 Cl  0  0  0  0  0  0  0  0  0  0  0  0
   11.7512   -4.4254    0.0000 Cl  0  0  0  0  0  0  0  0  0  0  0  0
  2  3  1  0
  9 10  2  0
 18 13  1  0
 13 19  2  0
 19 20  1  0
 20 17  1  0
  3  4  1  0
 20 21  1  0
 10 11  1  0
 17 22  1  0
  4  5  1  0
 15 23  1  0
 11 12  2  0
 23 24  1  0
 12  7  1  0
 24 25  1  0
 25  1  1  0
  4  7  1  0
 21 26  2  0
  5  6  1  0
 26 27  1  0
 27 33  2  0
  1  2  1  0
 32 28  2  0
 28 21  1  0
 13 14  1  0
 12 29  1  0
 11 30  1  0
 14 15  1  0
 19 31  1  0
 32 33  1  0
  7  8  2  0
 14 16  2  0
 17 18  2  0
 24 34  1  0
  1  6  1  0
 26 35  1  0
  8  9  1  0
 35 36  1  0
M  END
>  <ACTIVITY>  (57) 
52.1

$$$$

     RDKit          2D

 39 39  0  0  0  0  0  0  0  0999 V2000
    1.2990   -0.7500    0.0000 N   0  0  0  0  0  0  0  0  0  0  0  0
    1.2990    0.7500    0.0000 C   0  0  0  0  0  0  0  0  0  0  0  0
    0.0000    1.5000    0.0000 C   0  0  0  0  0  0  0  0  0  0  0  0
   -1.2990    0.7500    0.0000 N   0  0  0  0  0  0  0  0  0  0  0  0
   -1.2990   -0.7500    0.0000 C   0  0  0  0  0  0  0  0  0  0  0  0
    0.0000   -1.5000    0.0000 C   0  0  0  0  0  0  0  0  0  0  0  0
   -2.5987    1.5004    0.0000 C   0  0  0  0  0  0  0  0  0  0  0  0
   -3.8967    0.7484    0.0000 C   0  0  0  0  0  0  0  0  0  0  0  0
   -5.1969    1.4963    0.0000 C   0  0  0  0  0  0  0  0  0  0  0  0
   -5.1993    2.9963    0.0000 C   0  0  0  0  0  0  0  0  0  0  0  0
   -3.9015    3.7484    0.0000 C   0  0  0  0  0  0  0  0  0  0  0  0
   -2.6012    3.0004    0.0000 C   0  0  0  0  0  0  0  0  0  0  0  0
    5.1873   -7.5117    0.0000 C   0  0  0  0  0  0  0  0  0  0  0  0
    5.1894   -6.0109    0.0000 C   0  0  0  0  0  0  0  0  0  0  0  0
    3.8912   -5.2578    0.0000 N   0  0  0  0  0  0  0  0  0  0  0  0
    6.2297   -5.4127    0.0000 O   0  0  0  0  0  0  0  0  0  0  0  0
    4.4293   -9.7955    0.0000 C   0  0  0  0  0  0  0  0  0  0  0  0
    3.9707   -8.3673    0.0000 N   0  0  0  0  0  0  0  0  0  0  0  0
    6.3978   -8.3758    0.0000 C   0  0  0  0  0  0  0  0  0  0  0  0
    5.9293   -9.8007    0.0000 N   0  0  0  0  0  0  0  0  0  0  0  0
    6.8072  -11.0179    0.0000 C   0  0  0  0  0  0  0  0  0  0  0  0
    3.7206  -10.7639    0.0000 C   0  0  0  0  0  0  0  0  0  0  0  0
    3.8933   -3.7570    0.0000 C   0  0  0  0  0  0  0  0  0  0  0  0
    2.5951   -3.0039    0.0000 C   0  0  0  0  0  0  0  0  0  0  0  0
    2.5973   -1.5031    0.0000 C   0  0  0  0  0  0  0  0  0  0  0  0
    6.2979  -12.4235    0.0000 C   0  0  0  0  0  0  0  0  0  0  0  0
    7.2644  -13.5706    0.0000 C   0  0  0  0  0  0  0  0  0  0  0  0
    8.2847  -10.7495    0.0000 C   0  0  0  0  0  0  0  0  0  0  0  0
   -3.9034    4.9484    0.0000 Cl  0  0  0  0  0  0  0  0  0  0  0  0
    7.5381   -8.0021    0.0000 C   0  0  0  0  0  0  0  0  0  0  0  0
    9.2512  -11.8966    0.0000 C   0  0  0  0  0  0  0  0  0  0  0  0
    8.7411  -13.3071    0.0000 C   0  0  0  0  0  0  0  0  0  0  0  0
    1.5548   -3.6021    0.0000 O   0  0  0  0  0  0  0  0  0  0  0  0
    4.8206  -12.6884    0.0000 O   0  0  0  0  0  0  0  0  0  0  0  0
    4.4127  -13.8170    0.0000 C   0  0  0  0  0  0  0  0  0  0  0  0
   -1.5630    3.6021    0.0000 C   0  0  0  0  0  0  0  0  0  0  0  0
   16.7512   -4.4254    0.0000 Cl  0  0  0  0  0  0  0  0  0  0  0  0
   14.2512   -4.4254    0.0000 Cl  0  0  0  0  0  0  0  0  0  0  0  0
   11.7512   -4.4254    0.0000 Cl  0  0  0  0  0  0  0  0  0  0  0  0
  2  3  1  0
  9 10  2  0
 18 13  1  0
 13 19  2  0
 19 20  1  0
 20 17  1  0
  3  4  1  0
 20 21  1  0
 10 11  1  0
 17 22  1  0
  4  5  1  0
 15 23  1  0
 11 12  2  0
 23 24  1  0
 12  7  1  0
 24 25  1  0
 25  1  1  0
  4  7  1  0
 21 26  2  0
  5  6  1  0
 26 27  1  0
 27 32  2  0
  1  2  1  0
 31 28  2  0
 28 21  1  0
 13 14  1  0
 11 29  1  0
 19 30  1  0
 31 32  1  0
 14 15  1  0
  7  8  2  0
 14 16  2  0
 24 33  1  0
 17 18  2  0
 26 34  1  0
  1  6  1  0
 34 35  1  0
  8  9  1  0
 12 36  1  0
M  END
>  <ACTIVITY>  (58) 
370

$$$$

     RDKit          2D

 39 39  0  0  0  0  0  0  0  0999 V2000
    1.2990   -0.7500    0.0000 N   0  0  0  0  0  0  0  0  0  0  0  0
    1.2990    0.7500    0.0000 C   0  0  0  0  0  0  0  0  0  0  0  0
    0.0000    1.5000    0.0000 C   0  0  0  0  0  0  0  0  0  0  0  0
   -1.2990    0.7500    0.0000 N   0  0  0  0  0  0  0  0  0  0  0  0
   -1.2990   -0.7500    0.0000 C   0  0  0  0  0  0  0  0  0  0  0  0
    0.0000   -1.5000    0.0000 C   0  0  0  0  0  0  0  0  0  0  0  0
   -2.5987    1.5004    0.0000 C   0  0  0  0  0  0  0  0  0  0  0  0
   -3.8967    0.7484    0.0000 C   0  0  0  0  0  0  0  0  0  0  0  0
   -5.1969    1.4963    0.0000 C   0  0  0  0  0  0  0  0  0  0  0  0
   -5.1993    2.9963    0.0000 C   0  0  0  0  0  0  0  0  0  0  0  0
   -3.9015    3.7484    0.0000 C   0  0  0  0  0  0  0  0  0  0  0  0
   -2.6012    3.0004    0.0000 C   0  0  0  0  0  0  0  0  0  0  0  0
    5.1873   -7.5117    0.0000 C   0  0  0  0  0  0  0  0  0  0  0  0
    5.1894   -6.0109    0.0000 C   0  0  0  0  0  0  0  0  0  0  0  0
    3.8912   -5.2578    0.0000 N   0  0  0  0  0  0  0  0  0  0  0  0
    6.2297   -5.4127    0.0000 O   0  0  0  0  0  0  0  0  0  0  0  0
    4.4293   -9.7955    0.0000 C   0  0  0  0  0  0  0  0  0  0  0  0
    3.9707   -8.3673    0.0000 N   0  0  0  0  0  0  0  0  0  0  0  0
    6.3978   -8.3758    0.0000 C   0  0  0  0  0  0  0  0  0  0  0  0
    5.9293   -9.8007    0.0000 N   0  0  0  0  0  0  0  0  0  0  0  0
    6.8072  -11.0179    0.0000 C   0  0  0  0  0  0  0  0  0  0  0  0
    3.7206  -10.7639    0.0000 C   0  0  0  0  0  0  0  0  0  0  0  0
    3.8933   -3.7570    0.0000 C   0  0  0  0  0  0  0  0  0  0  0  0
    2.5951   -3.0039    0.0000 C   0  0  0  0  0  0  0  0  0  0  0  0
    2.5973   -1.5031    0.0000 C   0  0  0  0  0  0  0  0  0  0  0  0
    6.2979  -12.4235    0.0000 C   0  0  0  0  0  0  0  0  0  0  0  0
    7.2644  -13.5706    0.0000 C   0  0  0  0  0  0  0  0  0  0  0  0
    8.2847  -10.7495    0.0000 C   0  0  0  0  0  0  0  0  0  0  0  0
   -3.9034    4.9484    0.0000 Cl  0  0  0  0  0  0  0  0  0  0  0  0
    7.5381   -8.0021    0.0000 C   0  0  0  0  0  0  0  0  0  0  0  0
    9.2512  -11.8966    0.0000 C   0  0  0  0  0  0  0  0  0  0  0  0
    8.7411  -13.3071    0.0000 C   0  0  0  0  0  0  0  0  0  0  0  0
    1.5548   -3.6021    0.0000 O   0  0  0  0  0  0  0  0  0  0  0  0
   -1.5630    3.6021    0.0000 C   0  0  0  0  0  0  0  0  0  0  0  0
    9.7105  -14.4529    0.0000 O   0  0  0  0  0  0  0  0  0  0  0  0
   10.8915  -14.2404    0.0000 C   0  0  0  0  0  0  0  0  0  0  0  0
   18.6876   -4.6019    0.0000 Cl  0  0  0  0  0  0  0  0  0  0  0  0
   16.1876   -4.6019    0.0000 Cl  0  0  0  0  0  0  0  0  0  0  0  0
   13.6876   -4.6019    0.0000 Cl  0  0  0  0  0  0  0  0  0  0  0  0
  2  3  1  0
  9 10  2  0
 18 13  1  0
 13 19  2  0
 19 20  1  0
 20 17  1  0
  3  4  1  0
 20 21  1  0
 10 11  1  0
 17 22  1  0
  4  5  1  0
 15 23  1  0
 11 12  2  0
 23 24  1  0
 12  7  1  0
 24 25  1  0
 25  1  1  0
  4  7  1  0
 21 26  2  0
  5  6  1  0
 26 27  1  0
 27 32  2  0
  1  2  1  0
 31 28  2  0
 28 21  1  0
 13 14  1  0
 11 29  1  0
 19 30  1  0
 31 32  1  0
 14 15  1  0
  7  8  2  0
 14 16  2  0
 24 33  1  0
 17 18  2  0
 12 34  1  0
  1  6  1  0
 32 35  1  0
  8  9  1  0
 35 36  1  0
M  END
>  <ACTIVITY>  (59) 
56

$$$$

     RDKit          2D

 38 39  0  0  0  0  0  0  0  0999 V2000
    1.2990   -0.7500    0.0000 N   0  0  0  0  0  0  0  0  0  0  0  0
    1.2990    0.7500    0.0000 C   0  0  0  0  0  0  0  0  0  0  0  0
    0.0000    1.5000    0.0000 C   0  0  0  0  0  0  0  0  0  0  0  0
   -1.2990    0.7500    0.0000 N   0  0  0  0  0  0  0  0  0  0  0  0
   -1.2990   -0.7500    0.0000 C   0  0  0  0  0  0  0  0  0  0  0  0
    0.0000   -1.5000    0.0000 C   0  0  0  0  0  0  0  0  0  0  0  0
   -2.5987    1.5004    0.0000 C   0  0  0  0  0  0  0  0  0  0  0  0
   -3.8967    0.7484    0.0000 C   0  0  0  0  0  0  0  0  0  0  0  0
   -5.1969    1.4963    0.0000 C   0  0  0  0  0  0  0  0  0  0  0  0
   -5.1993    2.9963    0.0000 C   0  0  0  0  0  0  0  0  0  0  0  0
   -3.9015    3.7484    0.0000 C   0  0  0  0  0  0  0  0  0  0  0  0
   -2.6012    3.0004    0.0000 C   0  0  0  0  0  0  0  0  0  0  0  0
    5.1873   -7.5117    0.0000 C   0  0  0  0  0  0  0  0  0  0  0  0
    5.1894   -6.0109    0.0000 C   0  0  0  0  0  0  0  0  0  0  0  0
    3.8912   -5.2578    0.0000 N   0  0  0  0  0  0  0  0  0  0  0  0
    6.2297   -5.4127    0.0000 O   0  0  0  0  0  0  0  0  0  0  0  0
    4.4293   -9.7955    0.0000 C   0  0  0  0  0  0  0  0  0  0  0  0
    3.9707   -8.3673    0.0000 N   0  0  0  0  0  0  0  0  0  0  0  0
    6.3978   -8.3758    0.0000 C   0  0  0  0  0  0  0  0  0  0  0  0
    5.9293   -9.8007    0.0000 N   0  0  0  0  0  0  0  0  0  0  0  0
    6.8072  -11.0179    0.0000 C   0  0  0  0  0  0  0  0  0  0  0  0
    3.7206  -10.7639    0.0000 C   0  0  0  0  0  0  0  0  0  0  0  0
    3.8933   -3.7570    0.0000 C   0  0  0  0  0  0  0  0  0  0  0  0
    2.5951   -3.0039    0.0000 C   0  0  0  0  0  0  0  0  0  0  0  0
    2.5973   -1.5031    0.0000 C   0  0  0  0  0  0  0  0  0  0  0  0
    6.2979  -12.4235    0.0000 C   0  0  0  0  0  0  0  0  0  0  0  0
    7.2644  -13.5706    0.0000 C   0  0  0  0  0  0  0  0  0  0  0  0
    8.2847  -10.7495    0.0000 C   0  0  0  0  0  0  0  0  0  0  0  0
   -3.9034    4.9484    0.0000 C   0  0  0  0  0  0  0  0  0  0  0  0
    7.5381   -8.0021    0.0000 C   0  0  0  0  0  0  0  0  0  0  0  0
    9.2512  -11.8966    0.0000 C   0  0  0  0  0  0  0  0  0  0  0  0
    8.7411  -13.3071    0.0000 C   0  0  0  0  0  0  0  0  0  0  0  0
    1.5548   -3.6021    0.0000 O   0  0  0  0  0  0  0  0  0  0  0  0
   -1.5630    3.6021    0.0000 C   0  0  0  0  0  0  0  0  0  0  0  0
    9.7105  -14.4529    0.0000 O   0  0  0  0  0  0  0  0  0  0  0  0
   10.8915  -14.2404    0.0000 C   0  0  0  0  0  0  0  0  0  0  0  0
   16.1876   -4.6019    0.0000 Cl  0  0  0  0  0  0  0  0  0  0  0  0
   13.6876   -4.6019    0.0000 Cl  0  0  0  0  0  0  0  0  0  0  0  0
  2  3  1  0
  9 10  2  0
 18 13  1  0
 13 19  2  0
 19 20  1  0
 20 17  1  0
  3  4  1  0
 20 21  1  0
 10 11  1  0
 17 22  1  0
  4  5  1  0
 15 23  1  0
 11 12  2  0
 23 24  1  0
 12  7  1  0
 24 25  1  0
 25  1  1  0
  4  7  1  0
 21 26  2  0
  5  6  1  0
 26 27  1  0
 27 32  2  0
  1  2  1  0
 31 28  2  0
 28 21  1  0
 13 14  1  0
 11 29  1  0
 19 30  1  0
 31 32  1  0
 14 15  1  0
  7  8  2  0
 14 16  2  0
 24 33  1  0
 17 18  2  0
 12 34  1  0
  1  6  1  0
 32 35  1  0
  8  9  1  0
 35 36  1  0
M  END
>  <ACTIVITY>  (60) 
174.9

$$$$

     RDKit          2D

 42 41  0  0  0  0  0  0  0  0999 V2000
    1.2990   -0.7500    0.0000 N   0  0  0  0  0  0  0  0  0  0  0  0
    1.2990    0.7500    0.0000 C   0  0  0  0  0  0  0  0  0  0  0  0
    0.0000    1.5000    0.0000 C   0  0  0  0  0  0  0  0  0  0  0  0
   -1.2990    0.7500    0.0000 N   0  0  0  0  0  0  0  0  0  0  0  0
   -1.2990   -0.7500    0.0000 C   0  0  0  0  0  0  0  0  0  0  0  0
    0.0000   -1.5000    0.0000 C   0  0  0  0  0  0  0  0  0  0  0  0
   -2.5987    1.5004    0.0000 C   0  0  0  0  0  0  0  0  0  0  0  0
   -3.8967    0.7484    0.0000 C   0  0  0  0  0  0  0  0  0  0  0  0
   -5.1969    1.4963    0.0000 C   0  0  0  0  0  0  0  0  0  0  0  0
   -5.1993    2.9963    0.0000 C   0  0  0  0  0  0  0  0  0  0  0  0
   -3.9015    3.7484    0.0000 C   0  0  0  0  0  0  0  0  0  0  0  0
   -2.6012    3.0004    0.0000 C   0  0  0  0  0  0  0  0  0  0  0  0
    5.1873   -7.5117    0.0000 C   0  0  0  0  0  0  0  0  0  0  0  0
    5.1894   -6.0109    0.0000 C   0  0  0  0  0  0  0  0  0  0  0  0
    3.8912   -5.2578    0.0000 N   0  0  0  0  0  0  0  0  0  0  0  0
    6.2297   -5.4127    0.0000 O   0  0  0  0  0  0  0  0  0  0  0  0
    4.4293   -9.7955    0.0000 C   0  0  0  0  0  0  0  0  0  0  0  0
    3.9707   -8.3673    0.0000 N   0  0  0  0  0  0  0  0  0  0  0  0
    6.3978   -8.3758    0.0000 C   0  0  0  0  0  0  0  0  0  0  0  0
    5.9293   -9.8007    0.0000 N   0  0  0  0  0  0  0  0  0  0  0  0
    6.8072  -11.0179    0.0000 C   0  0  0  0  0  0  0  0  0  0  0  0
    3.5419  -11.0027    0.0000 C   0  0  0  0  0  0  0  0  0  0  0  0
    3.8933   -3.7570    0.0000 C   0  0  0  0  0  0  0  0  0  0  0  0
    2.5951   -3.0039    0.0000 C   0  0  0  0  0  0  0  0  0  0  0  0
    2.5973   -1.5031    0.0000 C   0  0  0  0  0  0  0  0  0  0  0  0
    6.2979  -12.4235    0.0000 C   0  0  0  0  0  0  0  0  0  0  0  0
    7.2644  -13.5706    0.0000 C   0  0  0  0  0  0  0  0  0  0  0  0
    8.2847  -10.7495    0.0000 C   0  0  0  0  0  0  0  0  0  0  0  0
   -3.9034    4.9484    0.0000 Cl  0  0  0  0  0  0  0  0  0  0  0  0
    7.5381   -8.0021    0.0000 C   0  0  0  0  0  0  0  0  0  0  0  0
    9.2512  -11.8966    0.0000 C   0  0  0  0  0  0  0  0  0  0  0  0
    8.7411  -13.3071    0.0000 C   0  0  0  0  0  0  0  0  0  0  0  0
    1.5548   -3.6021    0.0000 O   0  0  0  0  0  0  0  0  0  0  0  0
   -1.5630    3.6021    0.0000 Cl  0  0  0  0  0  0  0  0  0  0  0  0
    9.7105  -14.4529    0.0000 O   0  0  0  0  0  0  0  0  0  0  0  0
   10.8915  -14.2404    0.0000 C   0  0  0  0  0  0  0  0  0  0  0  0
    2.0501  -10.8385    0.0000 C   0  0  0  0  0  0  0  0  0  0  0  0
    1.3394  -11.8054    0.0000 C   0  0  0  0  0  0  0  0  0  0  0  0
   21.1876   -4.6019    0.0000 Cl  0  0  0  0  0  0  0  0  0  0  0  0
   18.6876   -4.6019    0.0000 Cl  0  0  0  0  0  0  0  0  0  0  0  0
   16.1876   -4.6019    0.0000 Cl  0  0  0  0  0  0  0  0  0  0  0  0
   13.6876   -4.6019    0.0000 Cl  0  0  0  0  0  0  0  0  0  0  0  0
 18 13  1  0
 13 19  2  0
 19 20  1  0
 20 17  1  0
  3  4  1  0
 20 21  1  0
 10 11  1  0
 17 22  1  0
  4  5  1  0
 15 23  1  0
 11 12  2  0
 23 24  1  0
 12  7  1  0
 24 25  1  0
 25  1  1  0
  4  7  1  0
 21 26  2  0
  5  6  1  0
 26 27  1  0
 27 32  2  0
  1  2  1  0
 31 28  2  0
 28 21  1  0
 13 14  1  0
 11 29  1  0
 19 30  1  0
 31 32  1  0
 14 15  1  0
  7  8  2  0
 14 16  2  0
 24 33  1  0
 17 18  2  0
 12 34  1  0
  1  6  1  0
 32 35  1  0
  8  9  1  0
 35 36  1  0
  2  3  1  0
 22 37  1  0
  9 10  2  0
 37 38  1  0
M  END
>  <ACTIVITY>  (61) 
63.1

$$$$

     RDKit          2D

 41 41  0  0  0  0  0  0  0  0999 V2000
    1.2990   -0.7500    0.0000 N   0  0  0  0  0  0  0  0  0  0  0  0
    1.2990    0.7500    0.0000 C   0  0  0  0  0  0  0  0  0  0  0  0
    0.0000    1.5000    0.0000 C   0  0  0  0  0  0  0  0  0  0  0  0
   -1.2990    0.7500    0.0000 N   0  0  0  0  0  0  0  0  0  0  0  0
   -1.2990   -0.7500    0.0000 C   0  0  0  0  0  0  0  0  0  0  0  0
    0.0000   -1.5000    0.0000 C   0  0  0  0  0  0  0  0  0  0  0  0
   -2.5987    1.5004    0.0000 C   0  0  0  0  0  0  0  0  0  0  0  0
   -3.8967    0.7484    0.0000 C   0  0  0  0  0  0  0  0  0  0  0  0
   -5.1969    1.4963    0.0000 C   0  0  0  0  0  0  0  0  0  0  0  0
   -5.1993    2.9963    0.0000 C   0  0  0  0  0  0  0  0  0  0  0  0
   -3.9015    3.7484    0.0000 C   0  0  0  0  0  0  0  0  0  0  0  0
   -2.6012    3.0004    0.0000 C   0  0  0  0  0  0  0  0  0  0  0  0
    5.1873   -7.5117    0.0000 C   0  0  0  0  0  0  0  0  0  0  0  0
    5.1894   -6.0109    0.0000 C   0  0  0  0  0  0  0  0  0  0  0  0
    3.8912   -5.2578    0.0000 N   0  0  0  0  0  0  0  0  0  0  0  0
    6.2297   -5.4127    0.0000 O   0  0  0  0  0  0  0  0  0  0  0  0
    4.4293   -9.7955    0.0000 C   0  0  0  0  0  0  0  0  0  0  0  0
    3.9707   -8.3673    0.0000 N   0  0  0  0  0  0  0  0  0  0  0  0
    6.3978   -8.3758    0.0000 C   0  0  0  0  0  0  0  0  0  0  0  0
    5.9293   -9.8007    0.0000 N   0  0  0  0  0  0  0  0  0  0  0  0
    6.8072  -11.0179    0.0000 C   0  0  0  0  0  0  0  0  0  0  0  0
    3.5419  -11.0027    0.0000 C   0  0  0  0  0  0  0  0  0  0  0  0
    3.8933   -3.7570    0.0000 C   0  0  0  0  0  0  0  0  0  0  0  0
    2.5951   -3.0039    0.0000 C   0  0  0  0  0  0  0  0  0  0  0  0
    2.5973   -1.5031    0.0000 C   0  0  0  0  0  0  0  0  0  0  0  0
    6.2979  -12.4235    0.0000 C   0  0  0  0  0  0  0  0  0  0  0  0
    7.2644  -13.5706    0.0000 C   0  0  0  0  0  0  0  0  0  0  0  0
    8.2847  -10.7495    0.0000 C   0  0  0  0  0  0  0  0  0  0  0  0
   -3.9034    4.9484    0.0000 Cl  0  0  0  0  0  0  0  0  0  0  0  0
    7.5381   -8.0021    0.0000 C   0  0  0  0  0  0  0  0  0  0  0  0
    9.2512  -11.8966    0.0000 C   0  0  0  0  0  0  0  0  0  0  0  0
    8.7411  -13.3071    0.0000 C   0  0  0  0  0  0  0  0  0  0  0  0
    1.5548   -3.6021    0.0000 O   0  0  0  0  0  0  0  0  0  0  0  0
   -1.5630    3.6021    0.0000 C   0  0  0  0  0  0  0  0  0  0  0  0
    9.7105  -14.4529    0.0000 O   0  0  0  0  0  0  0  0  0  0  0  0
   10.8915  -14.2404    0.0000 C   0  0  0  0  0  0  0  0  0  0  0  0
    2.0501  -10.8385    0.0000 C   0  0  0  0  0  0  0  0  0  0  0  0
    1.3394  -11.8054    0.0000 C   0  0  0  0  0  0  0  0  0  0  0  0
   18.6876   -4.6019    0.0000 Cl  0  0  0  0  0  0  0  0  0  0  0  0
   16.1876   -4.6019    0.0000 Cl  0  0  0  0  0  0  0  0  0  0  0  0
   13.6876   -4.6019    0.0000 Cl  0  0  0  0  0  0  0  0  0  0  0  0
 18 13  1  0
 13 19  2  0
 19 20  1  0
 20 17  1  0
  3  4  1  0
 20 21  1  0
 10 11  1  0
 17 22  1  0
  4  5  1  0
 15 23  1  0
 11 12  2  0
 23 24  1  0
 12  7  1  0
 24 25  1  0
 25  1  1  0
  4  7  1  0
 21 26  2  0
  5  6  1  0
 26 27  1  0
 27 32  2  0
  1  2  1  0
 31 28  2  0
 28 21  1  0
 13 14  1  0
 11 29  1  0
 19 30  1  0
 31 32  1  0
 14 15  1  0
  7  8  2  0
 14 16  2  0
 24 33  1  0
 17 18  2  0
 12 34  1  0
  1  6  1  0
 32 35  1  0
  8  9  1  0
 35 36  1  0
  2  3  1  0
 22 37  1  0
  9 10  2  0
 37 38  1  0
M  END
>  <ACTIVITY>  (62) 
582

$$$$

     RDKit          2D

 40 41  0  0  0  0  0  0  0  0999 V2000
    1.2990   -0.7500    0.0000 N   0  0  0  0  0  0  0  0  0  0  0  0
    1.2990    0.7500    0.0000 C   0  0  0  0  0  0  0  0  0  0  0  0
    0.0000    1.5000    0.0000 C   0  0  0  0  0  0  0  0  0  0  0  0
   -1.2990    0.7500    0.0000 N   0  0  0  0  0  0  0  0  0  0  0  0
   -1.2990   -0.7500    0.0000 C   0  0  0  0  0  0  0  0  0  0  0  0
    0.0000   -1.5000    0.0000 C   0  0  0  0  0  0  0  0  0  0  0  0
   -2.5987    1.5004    0.0000 C   0  0  0  0  0  0  0  0  0  0  0  0
   -3.8967    0.7484    0.0000 C   0  0  0  0  0  0  0  0  0  0  0  0
   -5.1969    1.4963    0.0000 C   0  0  0  0  0  0  0  0  0  0  0  0
   -5.1993    2.9963    0.0000 C   0  0  0  0  0  0  0  0  0  0  0  0
   -3.9015    3.7484    0.0000 C   0  0  0  0  0  0  0  0  0  0  0  0
   -2.6012    3.0004    0.0000 C   0  0  0  0  0  0  0  0  0  0  0  0
    5.1873   -7.5117    0.0000 C   0  0  0  0  0  0  0  0  0  0  0  0
    5.1894   -6.0109    0.0000 C   0  0  0  0  0  0  0  0  0  0  0  0
    3.8912   -5.2578    0.0000 N   0  0  0  0  0  0  0  0  0  0  0  0
    6.2297   -5.4127    0.0000 O   0  0  0  0  0  0  0  0  0  0  0  0
    4.4293   -9.7955    0.0000 C   0  0  0  0  0  0  0  0  0  0  0  0
    3.9707   -8.3673    0.0000 N   0  0  0  0  0  0  0  0  0  0  0  0
    6.3978   -8.3758    0.0000 C   0  0  0  0  0  0  0  0  0  0  0  0
    5.9293   -9.8007    0.0000 N   0  0  0  0  0  0  0  0  0  0  0  0
    6.8072  -11.0179    0.0000 C   0  0  0  0  0  0  0  0  0  0  0  0
    3.5419  -11.0027    0.0000 C   0  0  0  0  0  0  0  0  0  0  0  0
    3.8933   -3.7570    0.0000 C   0  0  0  0  0  0  0  0  0  0  0  0
    2.5951   -3.0039    0.0000 C   0  0  0  0  0  0  0  0  0  0  0  0
    2.5973   -1.5031    0.0000 C   0  0  0  0  0  0  0  0  0  0  0  0
    6.2979  -12.4235    0.0000 C   0  0  0  0  0  0  0  0  0  0  0  0
    7.2644  -13.5706    0.0000 C   0  0  0  0  0  0  0  0  0  0  0  0
    8.2847  -10.7495    0.0000 C   0  0  0  0  0  0  0  0  0  0  0  0
   -3.9034    4.9484    0.0000 C   0  0  0  0  0  0  0  0  0  0  0  0
    7.5381   -8.0021    0.0000 C   0  0  0  0  0  0  0  0  0  0  0  0
    9.2512  -11.8966    0.0000 C   0  0  0  0  0  0  0  0  0  0  0  0
    8.7411  -13.3071    0.0000 C   0  0  0  0  0  0  0  0  0  0  0  0
    1.5548   -3.6021    0.0000 O   0  0  0  0  0  0  0  0  0  0  0  0
   -1.5630    3.6021    0.0000 C   0  0  0  0  0  0  0  0  0  0  0  0
    9.7105  -14.4529    0.0000 O   0  0  0  0  0  0  0  0  0  0  0  0
   10.8915  -14.2404    0.0000 C   0  0  0  0  0  0  0  0  0  0  0  0
    2.0501  -10.8385    0.0000 C   0  0  0  0  0  0  0  0  0  0  0  0
    1.3394  -11.8054    0.0000 C   0  0  0  0  0  0  0  0  0  0  0  0
   16.1876   -4.6019    0.0000 Cl  0  0  0  0  0  0  0  0  0  0  0  0
   13.6876   -4.6019    0.0000 Cl  0  0  0  0  0  0  0  0  0  0  0  0
 18 13  1  0
 13 19  2  0
 19 20  1  0
 20 17  1  0
  3  4  1  0
 20 21  1  0
 10 11  1  0
 17 22  1  0
  4  5  1  0
 15 23  1  0
 11 12  2  0
 23 24  1  0
 12  7  1  0
 24 25  1  0
 25  1  1  0
  4  7  1  0
 21 26  2  0
  5  6  1  0
 26 27  1  0
 27 32  2  0
  1  2  1  0
 31 28  2  0
 28 21  1  0
 13 14  1  0
 11 29  1  0
 19 30  1  0
 31 32  1  0
 14 15  1  0
  7  8  2  0
 14 16  2  0
 24 33  1  0
 17 18  2  0
 12 34  1  0
  1  6  1  0
 32 35  1  0
  8  9  1  0
 35 36  1  0
  2  3  1  0
 22 37  1  0
  9 10  2  0
 37 38  1  0
M  END
>  <ACTIVITY>  (63) 
126

$$$$

     RDKit          2D

 44 45  0  0  0  0  0  0  0  0999 V2000
    1.2990   -0.7500    0.0000 N   0  0  0  0  0  0  0  0  0  0  0  0
    1.2990    0.7500    0.0000 C   0  0  0  0  0  0  0  0  0  0  0  0
    0.0000    1.5000    0.0000 C   0  0  0  0  0  0  0  0  0  0  0  0
   -1.2990    0.7500    0.0000 N   0  0  0  0  0  0  0  0  0  0  0  0
   -1.2990   -0.7500    0.0000 C   0  0  0  0  0  0  0  0  0  0  0  0
    0.0000   -1.5000    0.0000 C   0  0  0  0  0  0  0  0  0  0  0  0
   -2.5987    1.5004    0.0000 C   0  0  0  0  0  0  0  0  0  0  0  0
   -3.8967    0.7484    0.0000 C   0  0  0  0  0  0  0  0  0  0  0  0
   -5.1969    1.4963    0.0000 C   0  0  0  0  0  0  0  0  0  0  0  0
   -5.1993    2.9963    0.0000 C   0  0  0  0  0  0  0  0  0  0  0  0
   -3.9015    3.7484    0.0000 C   0  0  0  0  0  0  0  0  0  0  0  0
   -2.6012    3.0004    0.0000 C   0  0  0  0  0  0  0  0  0  0  0  0
    5.1873   -7.5117    0.0000 C   0  0  0  0  0  0  0  0  0  0  0  0
    5.1894   -6.0109    0.0000 C   0  0  0  0  0  0  0  0  0  0  0  0
    3.8912   -5.2578    0.0000 N   0  0  0  0  0  0  0  0  0  0  0  0
    6.2297   -5.4127    0.0000 O   0  0  0  0  0  0  0  0  0  0  0  0
    4.4293   -9.7955    0.0000 C   0  0  0  0  0  0  0  0  0  0  0  0
    3.9707   -8.3673    0.0000 N   0  0  0  0  0  0  0  0  0  0  0  0
    6.3978   -8.3758    0.0000 C   0  0  0  0  0  0  0  0  0  0  0  0
    5.9293   -9.8007    0.0000 N   0  0  0  0  0  0  0  0  0  0  0  0
    6.8072  -11.0179    0.0000 C   0  0  0  0  0  0  0  0  0  0  0  0
    3.5430  -11.0066    0.0000 C   0  0  0  0  0  0  0  0  0  0  0  0
    3.8933   -3.7570    0.0000 C   0  0  0  0  0  0  0  0  0  0  0  0
    2.5951   -3.0039    0.0000 C   0  0  0  0  0  0  0  0  0  0  0  0
    2.5973   -1.5031    0.0000 C   0  0  0  0  0  0  0  0  0  0  0  0
    6.2979  -12.4235    0.0000 C   0  0  0  0  0  0  0  0  0  0  0  0
    7.2644  -13.5706    0.0000 C   0  0  0  0  0  0  0  0  0  0  0  0
    8.2847  -10.7495    0.0000 C   0  0  0  0  0  0  0  0  0  0  0  0
   -3.9034    4.9484    0.0000 Cl  0  0  0  0  0  0  0  0  0  0  0  0
    7.5381   -8.0021    0.0000 C   0  0  0  0  0  0  0  0  0  0  0  0
    9.2512  -11.8966    0.0000 C   0  0  0  0  0  0  0  0  0  0  0  0
    8.7411  -13.3071    0.0000 C   0  0  0  0  0  0  0  0  0  0  0  0
    1.5548   -3.6021    0.0000 O   0  0  0  0  0  0  0  0  0  0  0  0
   -1.5630    3.6021    0.0000 C   0  0  0  0  0  0  0  0  0  0  0  0
    9.7105  -14.4529    0.0000 O   0  0  0  0  0  0  0  0  0  0  0  0
   10.8915  -14.2404    0.0000 C   0  0  0  0  0  0  0  0  0  0  0  0
    2.0488  -10.9565    0.0000 C   0  0  0  0  0  0  0  0  0  0  0  0
    1.2565  -12.2302    0.0000 C   0  0  0  0  0  0  0  0  0  0  0  0
    1.9634  -13.5532    0.0000 C   0  0  0  0  0  0  0  0  0  0  0  0
    3.4626  -13.6025    0.0000 C   0  0  0  0  0  0  0  0  0  0  0  0
    4.2549  -12.3288    0.0000 C   0  0  0  0  0  0  0  0  0  0  0  0
   18.6876   -4.6019    0.0000 Cl  0  0  0  0  0  0  0  0  0  0  0  0
   16.1876   -4.6019    0.0000 Cl  0  0  0  0  0  0  0  0  0  0  0  0
   13.6876   -4.6019    0.0000 Cl  0  0  0  0  0  0  0  0  0  0  0  0
 20 17  1  0
  3  4  1  0
 20 21  1  0
 10 11  1  0
 17 22  1  0
  4  5  1  0
 15 23  1  0
 11 12  2  0
 23 24  1  0
 12  7  1  0
 24 25  1  0
 25  1  1  0
  4  7  1  0
 21 26  2  0
  5  6  1  0
 26 27  1  0
 27 32  2  0
  1  2  1  0
 31 28  2  0
 28 21  1  0
 13 14  1  0
 11 29  1  0
 19 30  1  0
 31 32  1  0
 14 15  1  0
  7  8  2  0
 14 16  2  0
 24 33  1  0
 17 18  2  0
 12 34  1  0
  1  6  1  0
 32 35  1  0
  8  9  1  0
 35 36  1  0
  2  3  1  0
 22 37  2  0
  9 10  2  0
 37 38  1  0
 18 13  1  0
 38 39  2  0
 13 19  2  0
 39 40  1  0
 19 20  1  0
 40 41  2  0
 41 22  1  0
M  END
>  <ACTIVITY>  (64) 
170

$$$$

     RDKit          2D

 43 45  0  0  0  0  0  0  0  0999 V2000
    1.2990   -0.7500    0.0000 N   0  0  0  0  0  0  0  0  0  0  0  0
    1.2990    0.7500    0.0000 C   0  0  0  0  0  0  0  0  0  0  0  0
    0.0000    1.5000    0.0000 C   0  0  0  0  0  0  0  0  0  0  0  0
   -1.2990    0.7500    0.0000 N   0  0  0  0  0  0  0  0  0  0  0  0
   -1.2990   -0.7500    0.0000 C   0  0  0  0  0  0  0  0  0  0  0  0
    0.0000   -1.5000    0.0000 C   0  0  0  0  0  0  0  0  0  0  0  0
   -2.5987    1.5004    0.0000 C   0  0  0  0  0  0  0  0  0  0  0  0
   -3.8967    0.7484    0.0000 C   0  0  0  0  0  0  0  0  0  0  0  0
   -5.1969    1.4963    0.0000 C   0  0  0  0  0  0  0  0  0  0  0  0
   -5.1993    2.9963    0.0000 C   0  0  0  0  0  0  0  0  0  0  0  0
   -3.9015    3.7484    0.0000 C   0  0  0  0  0  0  0  0  0  0  0  0
   -2.6012    3.0004    0.0000 C   0  0  0  0  0  0  0  0  0  0  0  0
    5.1873   -7.5117    0.0000 C   0  0  0  0  0  0  0  0  0  0  0  0
    5.1894   -6.0109    0.0000 C   0  0  0  0  0  0  0  0  0  0  0  0
    3.8912   -5.2578    0.0000 N   0  0  0  0  0  0  0  0  0  0  0  0
    6.2297   -5.4127    0.0000 O   0  0  0  0  0  0  0  0  0  0  0  0
    4.4293   -9.7955    0.0000 C   0  0  0  0  0  0  0  0  0  0  0  0
    3.9707   -8.3673    0.0000 N   0  0  0  0  0  0  0  0  0  0  0  0
    6.3978   -8.3758    0.0000 C   0  0  0  0  0  0  0  0  0  0  0  0
    5.9293   -9.8007    0.0000 N   0  0  0  0  0  0  0  0  0  0  0  0
    6.8072  -11.0179    0.0000 C   0  0  0  0  0  0  0  0  0  0  0  0
    3.5430  -11.0066    0.0000 C   0  0  0  0  0  0  0  0  0  0  0  0
    3.8933   -3.7570    0.0000 C   0  0  0  0  0  0  0  0  0  0  0  0
    2.5951   -3.0039    0.0000 C   0  0  0  0  0  0  0  0  0  0  0  0
    2.5973   -1.5031    0.0000 C   0  0  0  0  0  0  0  0  0  0  0  0
    6.2979  -12.4235    0.0000 C   0  0  0  0  0  0  0  0  0  0  0  0
    7.2644  -13.5706    0.0000 C   0  0  0  0  0  0  0  0  0  0  0  0
    8.2847  -10.7495    0.0000 C   0  0  0  0  0  0  0  0  0  0  0  0
   -3.9034    4.9484    0.0000 C   0  0  0  0  0  0  0  0  0  0  0  0
    7.5381   -8.0021    0.0000 C   0  0  0  0  0  0  0  0  0  0  0  0
    9.2512  -11.8966    0.0000 C   0  0  0  0  0  0  0  0  0  0  0  0
    8.7411  -13.3071    0.0000 C   0  0  0  0  0  0  0  0  0  0  0  0
    1.5548   -3.6021    0.0000 O   0  0  0  0  0  0  0  0  0  0  0  0
   -1.5630    3.6021    0.0000 C   0  0  0  0  0  0  0  0  0  0  0  0
    9.7105  -14.4529    0.0000 O   0  0  0  0  0  0  0  0  0  0  0  0
   10.8915  -14.2404    0.0000 C   0  0  0  0  0  0  0  0  0  0  0  0
    2.0488  -10.9565    0.0000 C   0  0  0  0  0  0  0  0  0  0  0  0
    1.2565  -12.2302    0.0000 C   0  0  0  0  0  0  0  0  0  0  0  0
    1.9634  -13.5532    0.0000 C   0  0  0  0  0  0  0  0  0  0  0  0
    3.4626  -13.6025    0.0000 C   0  0  0  0  0  0  0  0  0  0  0  0
    4.2549  -12.3288    0.0000 C   0  0  0  0  0  0  0  0  0  0  0  0
   16.1876   -4.6019    0.0000 Cl  0  0  0  0  0  0  0  0  0  0  0  0
   13.6876   -4.6019    0.0000 Cl  0  0  0  0  0  0  0  0  0  0  0  0
 20 17  1  0
  3  4  1  0
 20 21  1  0
 10 11  1  0
 17 22  1  0
  4  5  1  0
 15 23  1  0
 11 12  2  0
 23 24  1  0
 12  7  1  0
 24 25  1  0
 25  1  1  0
  4  7  1  0
 21 26  2  0
  5  6  1  0
 26 27  1  0
 27 32  2  0
  1  2  1  0
 31 28  2  0
 28 21  1  0
 13 14  1  0
 11 29  1  0
 19 30  1  0
 31 32  1  0
 14 15  1  0
  7  8  2  0
 14 16  2  0
 24 33  1  0
 17 18  2  0
 12 34  1  0
  1  6  1  0
 32 35  1  0
  8  9  1  0
 35 36  1  0
  2  3  1  0
 22 37  2  0
  9 10  2  0
 37 38  1  0
 18 13  1  0
 38 39  2  0
 13 19  2  0
 39 40  1  0
 19 20  1  0
 40 41  2  0
 41 22  1  0
M  END
>  <ACTIVITY>  (65) 
185

$$$$

     RDKit          2D

 40 41  0  0  0  0  0  0  0  0999 V2000
    1.2990   -0.7500    0.0000 N   0  0  0  0  0  0  0  0  0  0  0  0
    1.2990    0.7500    0.0000 C   0  0  0  0  0  0  0  0  0  0  0  0
    0.0000    1.5000    0.0000 C   0  0  0  0  0  0  0  0  0  0  0  0
   -1.2990    0.7500    0.0000 N   0  0  0  0  0  0  0  0  0  0  0  0
   -1.2990   -0.7500    0.0000 C   0  0  0  0  0  0  0  0  0  0  0  0
    0.0000   -1.5000    0.0000 C   0  0  0  0  0  0  0  0  0  0  0  0
   -2.5987    1.5004    0.0000 C   0  0  0  0  0  0  0  0  0  0  0  0
   -3.8967    0.7484    0.0000 C   0  0  0  0  0  0  0  0  0  0  0  0
   -5.1969    1.4963    0.0000 C   0  0  0  0  0  0  0  0  0  0  0  0
   -5.1993    2.9963    0.0000 C   0  0  0  0  0  0  0  0  0  0  0  0
   -3.9015    3.7484    0.0000 C   0  0  0  0  0  0  0  0  0  0  0  0
   -2.6012    3.0004    0.0000 C   0  0  0  0  0  0  0  0  0  0  0  0
    5.1873   -7.5117    0.0000 C   0  0  0  0  0  0  0  0  0  0  0  0
    5.1894   -6.0109    0.0000 C   0  0  0  0  0  0  0  0  0  0  0  0
    3.8912   -5.2578    0.0000 N   0  0  0  0  0  0  0  0  0  0  0  0
    6.2297   -5.4127    0.0000 O   0  0  0  0  0  0  0  0  0  0  0  0
    4.4293   -9.7955    0.0000 C   0  0  0  0  0  0  0  0  0  0  0  0
    3.9707   -8.3673    0.0000 N   0  0  0  0  0  0  0  0  0  0  0  0
    6.3978   -8.3758    0.0000 C   0  0  0  0  0  0  0  0  0  0  0  0
    5.9293   -9.8007    0.0000 N   0  0  0  0  0  0  0  0  0  0  0  0
    6.8072  -11.0179    0.0000 C   0  0  0  0  0  0  0  0  0  0  0  0
    3.7206  -10.7639    0.0000 C   0  0  0  0  0  0  0  0  0  0  0  0
    3.8933   -3.7570    0.0000 C   0  0  0  0  0  0  0  0  0  0  0  0
    2.5951   -3.0039    0.0000 C   0  0  0  0  0  0  0  0  0  0  0  0
    2.5973   -1.5031    0.0000 C   0  0  0  0  0  0  0  0  0  0  0  0
    6.2979  -12.4235    0.0000 C   0  0  0  0  0  0  0  0  0  0  0  0
    7.2644  -13.5706    0.0000 C   0  0  0  0  0  0  0  0  0  0  0  0
    8.2847  -10.7495    0.0000 C   0  0  0  0  0  0  0  0  0  0  0  0
   -3.9034    4.9484    0.0000 C   0  0  0  0  0  0  0  0  0  0  0  0
    7.5381   -8.0021    0.0000 C   0  0  0  0  0  0  0  0  0  0  0  0
    9.2512  -11.8966    0.0000 C   0  0  0  0  0  0  0  0  0  0  0  0
    8.7411  -13.3071    0.0000 C   0  0  0  0  0  0  0  0  0  0  0  0
    1.5548   -3.6021    0.0000 O   0  0  0  0  0  0  0  0  0  0  0  0
   -1.5630    3.6021    0.0000 C   0  0  0  0  0  0  0  0  0  0  0  0
    9.7058  -14.4569    0.0000 O   0  0  0  0  0  0  0  0  0  0  0  0
    9.2960  -15.5848    0.0000 C   0  0  0  0  0  0  0  0  0  0  0  0
   10.7282  -11.6299    0.0000 O   0  0  0  0  0  0  0  0  0  0  0  0
   11.1347  -10.5009    0.0000 C   0  0  0  0  0  0  0  0  0  0  0  0
   16.2366   -5.3092    0.0000 Cl  0  0  0  0  0  0  0  0  0  0  0  0
   13.7366   -5.3092    0.0000 Cl  0  0  0  0  0  0  0  0  0  0  0  0
 18 13  1  0
 13 19  2  0
 19 20  1  0
 20 17  1  0
  3  4  1  0
 20 21  1  0
 10 11  1  0
 17 22  1  0
  4  5  1  0
 15 23  1  0
 11 12  2  0
 23 24  1  0
 12  7  1  0
 24 25  1  0
 25  1  1  0
  4  7  1  0
 21 26  2  0
  5  6  1  0
 26 27  1  0
 27 32  2  0
  1  2  1  0
 31 28  2  0
 28 21  1  0
 13 14  1  0
 11 29  1  0
 19 30  1  0
 31 32  1  0
 14 15  1  0
  7  8  2  0
 14 16  2  0
 24 33  1  0
 17 18  2  0
 12 34  1  0
  1  6  1  0
 32 35  1  0
  8  9  1  0
 35 36  1  0
  2  3  1  0
 31 37  1  0
  9 10  2  0
 37 38  1  0
M  END
>  <ACTIVITY>  (66) 
204.5

$$$$

     RDKit          2D

 39 38  0  0  0  0  0  0  0  0999 V2000
    5.1945   -3.0045    0.0000 N   0  0  0  0  0  0  0  0  0  0  0  0
    5.1969   -1.5045    0.0000 C   0  0  0  0  0  0  0  0  0  0  0  0
    3.8991   -0.7525    0.0000 C   0  0  0  0  0  0  0  0  0  0  0  0
    2.5987   -1.5004    0.0000 N   0  0  0  0  0  0  0  0  0  0  0  0
    2.5965   -3.0004    0.0000 C   0  0  0  0  0  0  0  0  0  0  0  0
    3.8943   -3.7525    0.0000 C   0  0  0  0  0  0  0  0  0  0  0  0
    1.2990   -0.7500    0.0000 C   0  0  0  0  0  0  0  0  0  0  0  0
    0.0000   -1.5000    0.0000 C   0  0  0  0  0  0  0  0  0  0  0  0
   -1.2990   -0.7500    0.0000 C   0  0  0  0  0  0  0  0  0  0  0  0
   -1.2990    0.7500    0.0000 C   0  0  0  0  0  0  0  0  0  0  0  0
    0.0000    1.5000    0.0000 C   0  0  0  0  0  0  0  0  0  0  0  0
    1.2990    0.7500    0.0000 C   0  0  0  0  0  0  0  0  0  0  0  0
    9.0720   -9.7724    0.0000 C   0  0  0  0  0  0  0  0  0  0  0  0
    9.0765   -8.2716    0.0000 C   0  0  0  0  0  0  0  0  0  0  0  0
    7.7795   -7.5165    0.0000 N   0  0  0  0  0  0  0  0  0  0  0  0
   10.1178   -7.6751    0.0000 O   0  0  0  0  0  0  0  0  0  0  0  0
    8.3104  -12.0550    0.0000 C   0  0  0  0  0  0  0  0  0  0  0  0
    7.8541  -10.6261    0.0000 N   0  0  0  0  0  0  0  0  0  0  0  0
   10.2812  -10.6384    0.0000 C   0  0  0  0  0  0  0  0  0  0  0  0
    9.8104  -12.0626    0.0000 N   0  0  0  0  0  0  0  0  0  0  0  0
   10.6864  -13.2812    0.0000 C   0  0  0  0  0  0  0  0  0  0  0  0
    7.6002  -13.0223    0.0000 C   0  0  0  0  0  0  0  0  0  0  0  0
    7.7840   -6.0157    0.0000 C   0  0  0  0  0  0  0  0  0  0  0  0
    6.4870   -5.2605    0.0000 C   0  0  0  0  0  0  0  0  0  0  0  0
    6.4915   -3.7597    0.0000 C   0  0  0  0  0  0  0  0  0  0  0  0
   12.1643  -13.0151    0.0000 C   0  0  0  0  0  0  0  0  0  0  0  0
   13.1290  -14.1637    0.0000 C   0  0  0  0  0  0  0  0  0  0  0  0
   10.1748  -14.6860    0.0000 C   0  0  0  0  0  0  0  0  0  0  0  0
    0.0000    2.7000    0.0000 Cl  0  0  0  0  0  0  0  0  0  0  0  0
   11.4221  -10.2666    0.0000 C   0  0  0  0  0  0  0  0  0  0  0  0
   11.1395  -15.8346    0.0000 C   0  0  0  0  0  0  0  0  0  0  0  0
   12.6166  -15.5735    0.0000 C   0  0  0  0  0  0  0  0  0  0  0  0
    5.4458   -5.8570    0.0000 O   0  0  0  0  0  0  0  0  0  0  0  0
    2.3383    1.3500    0.0000 Cl  0  0  0  0  0  0  0  0  0  0  0  0
    8.9931  -14.8945    0.0000 F   0  0  0  0  0  0  0  0  0  0  0  0
   23.1290   -6.4169    0.0000 Cl  0  0  0  0  0  0  0  0  0  0  0  0
   20.6290   -6.4169    0.0000 Cl  0  0  0  0  0  0  0  0  0  0  0  0
   18.1290   -6.4169    0.0000 Cl  0  0  0  0  0  0  0  0  0  0  0  0
   15.6290   -6.4169    0.0000 Cl  0  0  0  0  0  0  0  0  0  0  0  0
  8  9  2  0
  2  3  1  0
  9 10  1  0
 18 13  1  0
 13 19  2  0
 19 20  1  0
 20 17  1  0
  3  4  1  0
 20 21  1  0
 10 11  2  0
 17 22  1  0
  4  5  1  0
 15 23  1  0
 11 12  1  0
 23 24  1  0
 12  7  2  0
 24 25  1  0
 25  1  1  0
  4  7  1  0
 21 26  2  0
  5  6  1  0
 26 27  1  0
 27 32  2  0
  1  2  1  0
 31 28  2  0
 28 21  1  0
 13 14  1  0
 11 29  1  0
 19 30  1  0
 31 32  1  0
 14 15  1  0
  7  8  1  0
 14 16  2  0
 24 33  1  0
 17 18  2  0
 12 34  1  0
  1  6  1  0
 28 35  1  0
M  END
>  <ACTIVITY>  (67) 
104

$$$$

     RDKit          2D

 38 38  0  0  0  0  0  0  0  0999 V2000
    5.1945   -3.0045    0.0000 N   0  0  0  0  0  0  0  0  0  0  0  0
    5.1969   -1.5045    0.0000 C   0  0  0  0  0  0  0  0  0  0  0  0
    3.8991   -0.7525    0.0000 C   0  0  0  0  0  0  0  0  0  0  0  0
    2.5987   -1.5004    0.0000 N   0  0  0  0  0  0  0  0  0  0  0  0
    2.5965   -3.0004    0.0000 C   0  0  0  0  0  0  0  0  0  0  0  0
    3.8943   -3.7525    0.0000 C   0  0  0  0  0  0  0  0  0  0  0  0
    1.2990   -0.7500    0.0000 C   0  0  0  0  0  0  0  0  0  0  0  0
    0.0000   -1.5000    0.0000 C   0  0  0  0  0  0  0  0  0  0  0  0
   -1.2990   -0.7500    0.0000 C   0  0  0  0  0  0  0  0  0  0  0  0
   -1.2990    0.7500    0.0000 C   0  0  0  0  0  0  0  0  0  0  0  0
    0.0000    1.5000    0.0000 C   0  0  0  0  0  0  0  0  0  0  0  0
    1.2990    0.7500    0.0000 C   0  0  0  0  0  0  0  0  0  0  0  0
    9.0720   -9.7724    0.0000 C   0  0  0  0  0  0  0  0  0  0  0  0
    9.0765   -8.2716    0.0000 C   0  0  0  0  0  0  0  0  0  0  0  0
    7.7795   -7.5165    0.0000 N   0  0  0  0  0  0  0  0  0  0  0  0
   10.1178   -7.6751    0.0000 O   0  0  0  0  0  0  0  0  0  0  0  0
    8.3104  -12.0550    0.0000 C   0  0  0  0  0  0  0  0  0  0  0  0
    7.8541  -10.6261    0.0000 N   0  0  0  0  0  0  0  0  0  0  0  0
   10.2812  -10.6384    0.0000 C   0  0  0  0  0  0  0  0  0  0  0  0
    9.8104  -12.0626    0.0000 N   0  0  0  0  0  0  0  0  0  0  0  0
   10.6864  -13.2812    0.0000 C   0  0  0  0  0  0  0  0  0  0  0  0
    7.6002  -13.0223    0.0000 C   0  0  0  0  0  0  0  0  0  0  0  0
    7.7840   -6.0157    0.0000 C   0  0  0  0  0  0  0  0  0  0  0  0
    6.4870   -5.2605    0.0000 C   0  0  0  0  0  0  0  0  0  0  0  0
    6.4915   -3.7597    0.0000 C   0  0  0  0  0  0  0  0  0  0  0  0
   12.1643  -13.0151    0.0000 C   0  0  0  0  0  0  0  0  0  0  0  0
   13.1290  -14.1637    0.0000 C   0  0  0  0  0  0  0  0  0  0  0  0
   10.1748  -14.6860    0.0000 C   0  0  0  0  0  0  0  0  0  0  0  0
    0.0000    2.7000    0.0000 Cl  0  0  0  0  0  0  0  0  0  0  0  0
   11.4221  -10.2666    0.0000 C   0  0  0  0  0  0  0  0  0  0  0  0
   11.1395  -15.8346    0.0000 C   0  0  0  0  0  0  0  0  0  0  0  0
   12.6166  -15.5735    0.0000 C   0  0  0  0  0  0  0  0  0  0  0  0
    5.4458   -5.8570    0.0000 O   0  0  0  0  0  0  0  0  0  0  0  0
    2.3383    1.3500    0.0000 C   0  0  0  0  0  0  0  0  0  0  0  0
    8.9931  -14.8945    0.0000 F   0  0  0  0  0  0  0  0  0  0  0  0
   20.6290   -6.4169    0.0000 Cl  0  0  0  0  0  0  0  0  0  0  0  0
   18.1290   -6.4169    0.0000 Cl  0  0  0  0  0  0  0  0  0  0  0  0
   15.6290   -6.4169    0.0000 Cl  0  0  0  0  0  0  0  0  0  0  0  0
  8  9  2  0
  2  3  1  0
  9 10  1  0
 18 13  1  0
 13 19  2  0
 19 20  1  0
 20 17  1  0
  3  4  1  0
 20 21  1  0
 10 11  2  0
 17 22  1  0
  4  5  1  0
 15 23  1  0
 11 12  1  0
 23 24  1  0
 12  7  2  0
 24 25  1  0
 25  1  1  0
  4  7  1  0
 21 26  2  0
  5  6  1  0
 26 27  1  0
 27 32  2  0
  1  2  1  0
 31 28  2  0
 28 21  1  0
 13 14  1  0
 11 29  1  0
 19 30  1  0
 31 32  1  0
 14 15  1  0
  7  8  1  0
 14 16  2  0
 24 33  1  0
 17 18  2  0
 12 34  1  0
  1  6  1  0
 28 35  1  0
M  END
>  <ACTIVITY>  (68) 
197

$$$$

     RDKit          2D

 37 38  0  0  0  0  0  0  0  0999 V2000
    5.1945   -3.0045    0.0000 N   0  0  0  0  0  0  0  0  0  0  0  0
    5.1969   -1.5045    0.0000 C   0  0  0  0  0  0  0  0  0  0  0  0
    3.8991   -0.7525    0.0000 C   0  0  0  0  0  0  0  0  0  0  0  0
    2.5987   -1.5004    0.0000 N   0  0  0  0  0  0  0  0  0  0  0  0
    2.5965   -3.0004    0.0000 C   0  0  0  0  0  0  0  0  0  0  0  0
    3.8943   -3.7525    0.0000 C   0  0  0  0  0  0  0  0  0  0  0  0
    1.2990   -0.7500    0.0000 C   0  0  0  0  0  0  0  0  0  0  0  0
    0.0000   -1.5000    0.0000 C   0  0  0  0  0  0  0  0  0  0  0  0
   -1.2990   -0.7500    0.0000 C   0  0  0  0  0  0  0  0  0  0  0  0
   -1.2990    0.7500    0.0000 C   0  0  0  0  0  0  0  0  0  0  0  0
    0.0000    1.5000    0.0000 C   0  0  0  0  0  0  0  0  0  0  0  0
    1.2990    0.7500    0.0000 C   0  0  0  0  0  0  0  0  0  0  0  0
    9.0720   -9.7724    0.0000 C   0  0  0  0  0  0  0  0  0  0  0  0
    9.0765   -8.2716    0.0000 C   0  0  0  0  0  0  0  0  0  0  0  0
    7.7795   -7.5165    0.0000 N   0  0  0  0  0  0  0  0  0  0  0  0
   10.1178   -7.6751    0.0000 O   0  0  0  0  0  0  0  0  0  0  0  0
    8.3104  -12.0550    0.0000 C   0  0  0  0  0  0  0  0  0  0  0  0
    7.8541  -10.6261    0.0000 N   0  0  0  0  0  0  0  0  0  0  0  0
   10.2812  -10.6384    0.0000 C   0  0  0  0  0  0  0  0  0  0  0  0
    9.8104  -12.0626    0.0000 N   0  0  0  0  0  0  0  0  0  0  0  0
   10.6864  -13.2812    0.0000 C   0  0  0  0  0  0  0  0  0  0  0  0
    7.6002  -13.0223    0.0000 C   0  0  0  0  0  0  0  0  0  0  0  0
    7.7840   -6.0157    0.0000 C   0  0  0  0  0  0  0  0  0  0  0  0
    6.4870   -5.2605    0.0000 C   0  0  0  0  0  0  0  0  0  0  0  0
    6.4915   -3.7597    0.0000 C   0  0  0  0  0  0  0  0  0  0  0  0
   12.1643  -13.0151    0.0000 C   0  0  0  0  0  0  0  0  0  0  0  0
   13.1290  -14.1637    0.0000 C   0  0  0  0  0  0  0  0  0  0  0  0
   10.1748  -14.6860    0.0000 C   0  0  0  0  0  0  0  0  0  0  0  0
    0.0000    2.7000    0.0000 C   0  0  0  0  0  0  0  0  0  0  0  0
   11.4221  -10.2666    0.0000 C   0  0  0  0  0  0  0  0  0  0  0  0
   11.1395  -15.8346    0.0000 C   0  0  0  0  0  0  0  0  0  0  0  0
   12.6166  -15.5735    0.0000 C   0  0  0  0  0  0  0  0  0  0  0  0
    5.4458   -5.8570    0.0000 O   0  0  0  0  0  0  0  0  0  0  0  0
    2.3383    1.3500    0.0000 C   0  0  0  0  0  0  0  0  0  0  0  0
    8.9931  -14.8945    0.0000 F   0  0  0  0  0  0  0  0  0  0  0  0
   18.1290   -6.4169    0.0000 Cl  0  0  0  0  0  0  0  0  0  0  0  0
   15.6290   -6.4169    0.0000 Cl  0  0  0  0  0  0  0  0  0  0  0  0
  8  9  2  0
  2  3  1  0
  9 10  1  0
 18 13  1  0
 13 19  2  0
 19 20  1  0
 20 17  1  0
  3  4  1  0
 20 21  1  0
 10 11  2  0
 17 22  1  0
  4  5  1  0
 15 23  1  0
 11 12  1  0
 23 24  1  0
 12  7  2  0
 24 25  1  0
 25  1  1  0
  4  7  1  0
 21 26  2  0
  5  6  1  0
 26 27  1  0
 27 32  2  0
  1  2  1  0
 31 28  2  0
 28 21  1  0
 13 14  1  0
 11 29  1  0
 19 30  1  0
 31 32  1  0
 14 15  1  0
  7  8  1  0
 14 16  2  0
 24 33  1  0
 17 18  2  0
 12 34  1  0
  1  6  1  0
 28 35  1  0
M  END
>  <ACTIVITY>  (69) 
579

$$$$

     RDKit          2D

 38 38  0  0  0  0  0  0  0  0999 V2000
    5.1945   -3.0045    0.0000 N   0  0  0  0  0  0  0  0  0  0  0  0
    5.1969   -1.5045    0.0000 C   0  0  0  0  0  0  0  0  0  0  0  0
    3.8991   -0.7525    0.0000 C   0  0  0  0  0  0  0  0  0  0  0  0
    2.5987   -1.5004    0.0000 N   0  0  0  0  0  0  0  0  0  0  0  0
    2.5965   -3.0004    0.0000 C   0  0  0  0  0  0  0  0  0  0  0  0
    3.8943   -3.7525    0.0000 C   0  0  0  0  0  0  0  0  0  0  0  0
    1.2990   -0.7500    0.0000 C   0  0  0  0  0  0  0  0  0  0  0  0
    0.0000   -1.5000    0.0000 C   0  0  0  0  0  0  0  0  0  0  0  0
   -1.2990   -0.7500    0.0000 C   0  0  0  0  0  0  0  0  0  0  0  0
   -1.2990    0.7500    0.0000 C   0  0  0  0  0  0  0  0  0  0  0  0
    0.0000    1.5000    0.0000 C   0  0  0  0  0  0  0  0  0  0  0  0
    1.2990    0.7500    0.0000 C   0  0  0  0  0  0  0  0  0  0  0  0
    9.0720   -9.7724    0.0000 C   0  0  0  0  0  0  0  0  0  0  0  0
    9.0765   -8.2716    0.0000 C   0  0  0  0  0  0  0  0  0  0  0  0
    7.7795   -7.5165    0.0000 N   0  0  0  0  0  0  0  0  0  0  0  0
   10.1178   -7.6751    0.0000 O   0  0  0  0  0  0  0  0  0  0  0  0
    8.3104  -12.0550    0.0000 C   0  0  0  0  0  0  0  0  0  0  0  0
    7.8541  -10.6261    0.0000 N   0  0  0  0  0  0  0  0  0  0  0  0
   10.2812  -10.6384    0.0000 C   0  0  0  0  0  0  0  0  0  0  0  0
    9.8104  -12.0626    0.0000 N   0  0  0  0  0  0  0  0  0  0  0  0
   10.6864  -13.2812    0.0000 C   0  0  0  0  0  0  0  0  0  0  0  0
    7.6002  -13.0223    0.0000 C   0  0  0  0  0  0  0  0  0  0  0  0
    7.7840   -6.0157    0.0000 C   0  0  0  0  0  0  0  0  0  0  0  0
    6.4870   -5.2605    0.0000 C   0  0  0  0  0  0  0  0  0  0  0  0
    6.4915   -3.7597    0.0000 C   0  0  0  0  0  0  0  0  0  0  0  0
   10.1748  -14.6860    0.0000 C   0  0  0  0  0  0  0  0  0  0  0  0
   11.1395  -15.8346    0.0000 C   0  0  0  0  0  0  0  0  0  0  0  0
   12.1643  -13.0151    0.0000 C   0  0  0  0  0  0  0  0  0  0  0  0
    0.0000    2.7000    0.0000 Cl  0  0  0  0  0  0  0  0  0  0  0  0
   11.4221  -10.2666    0.0000 C   0  0  0  0  0  0  0  0  0  0  0  0
   13.1290  -14.1637    0.0000 C   0  0  0  0  0  0  0  0  0  0  0  0
   12.6166  -15.5735    0.0000 C   0  0  0  0  0  0  0  0  0  0  0  0
    5.4458   -5.8570    0.0000 O   0  0  0  0  0  0  0  0  0  0  0  0
    2.3383    1.3500    0.0000 C   0  0  0  0  0  0  0  0  0  0  0  0
   13.3884  -16.4924    0.0000 F   0  0  0  0  0  0  0  0  0  0  0  0
   21.0818   -6.8610    0.0000 Cl  0  0  0  0  0  0  0  0  0  0  0  0
   18.5818   -6.8610    0.0000 Cl  0  0  0  0  0  0  0  0  0  0  0  0
   16.0818   -6.8610    0.0000 Cl  0  0  0  0  0  0  0  0  0  0  0  0
  8  9  2  0
  2  3  1  0
  9 10  1  0
 18 13  1  0
 13 19  2  0
 19 20  1  0
 20 17  1  0
  3  4  1  0
 20 21  1  0
 10 11  2  0
 17 22  1  0
  4  5  1  0
 15 23  1  0
 11 12  1  0
 23 24  1  0
 12  7  2  0
 24 25  1  0
 25  1  1  0
  4  7  1  0
 21 26  2  0
  5  6  1  0
 26 27  1  0
 27 32  2  0
  1  2  1  0
 31 28  2  0
 28 21  1  0
 13 14  1  0
 11 29  1  0
 19 30  1  0
 31 32  1  0
 14 15  1  0
  7  8  1  0
 14 16  2  0
 24 33  1  0
 17 18  2  0
 12 34  1  0
  1  6  1  0
 32 35  1  0
M  END
>  <ACTIVITY>  (70) 
254

$$$$

     RDKit          2D

 37 38  0  0  0  0  0  0  0  0999 V2000
    5.1945   -3.0045    0.0000 N   0  0  0  0  0  0  0  0  0  0  0  0
    5.1969   -1.5045    0.0000 C   0  0  0  0  0  0  0  0  0  0  0  0
    3.8991   -0.7525    0.0000 C   0  0  0  0  0  0  0  0  0  0  0  0
    2.5987   -1.5004    0.0000 N   0  0  0  0  0  0  0  0  0  0  0  0
    2.5965   -3.0004    0.0000 C   0  0  0  0  0  0  0  0  0  0  0  0
    3.8943   -3.7525    0.0000 C   0  0  0  0  0  0  0  0  0  0  0  0
    1.2990   -0.7500    0.0000 C   0  0  0  0  0  0  0  0  0  0  0  0
    0.0000   -1.5000    0.0000 C   0  0  0  0  0  0  0  0  0  0  0  0
   -1.2990   -0.7500    0.0000 C   0  0  0  0  0  0  0  0  0  0  0  0
   -1.2990    0.7500    0.0000 C   0  0  0  0  0  0  0  0  0  0  0  0
    0.0000    1.5000    0.0000 C   0  0  0  0  0  0  0  0  0  0  0  0
    1.2990    0.7500    0.0000 C   0  0  0  0  0  0  0  0  0  0  0  0
    9.0720   -9.7724    0.0000 C   0  0  0  0  0  0  0  0  0  0  0  0
    9.0765   -8.2716    0.0000 C   0  0  0  0  0  0  0  0  0  0  0  0
    7.7795   -7.5165    0.0000 N   0  0  0  0  0  0  0  0  0  0  0  0
   10.1178   -7.6751    0.0000 O   0  0  0  0  0  0  0  0  0  0  0  0
    8.3104  -12.0550    0.0000 C   0  0  0  0  0  0  0  0  0  0  0  0
    7.8541  -10.6261    0.0000 N   0  0  0  0  0  0  0  0  0  0  0  0
   10.2812  -10.6384    0.0000 C   0  0  0  0  0  0  0  0  0  0  0  0
    9.8104  -12.0626    0.0000 N   0  0  0  0  0  0  0  0  0  0  0  0
   10.6864  -13.2812    0.0000 C   0  0  0  0  0  0  0  0  0  0  0  0
    7.6002  -13.0223    0.0000 C   0  0  0  0  0  0  0  0  0  0  0  0
    7.7840   -6.0157    0.0000 C   0  0  0  0  0  0  0  0  0  0  0  0
    6.4870   -5.2605    0.0000 C   0  0  0  0  0  0  0  0  0  0  0  0
    6.4915   -3.7597    0.0000 C   0  0  0  0  0  0  0  0  0  0  0  0
   10.1748  -14.6860    0.0000 C   0  0  0  0  0  0  0  0  0  0  0  0
   11.1395  -15.8346    0.0000 C   0  0  0  0  0  0  0  0  0  0  0  0
   12.1643  -13.0151    0.0000 C   0  0  0  0  0  0  0  0  0  0  0  0
    0.0000    2.7000    0.0000 C   0  0  0  0  0  0  0  0  0  0  0  0
   11.4221  -10.2666    0.0000 C   0  0  0  0  0  0  0  0  0  0  0  0
   13.1290  -14.1637    0.0000 C   0  0  0  0  0  0  0  0  0  0  0  0
   12.6166  -15.5735    0.0000 C   0  0  0  0  0  0  0  0  0  0  0  0
    5.4458   -5.8570    0.0000 O   0  0  0  0  0  0  0  0  0  0  0  0
    2.3383    1.3500    0.0000 C   0  0  0  0  0  0  0  0  0  0  0  0
   13.3884  -16.4924    0.0000 F   0  0  0  0  0  0  0  0  0  0  0  0
   18.5818   -6.8610    0.0000 Cl  0  0  0  0  0  0  0  0  0  0  0  0
   16.0818   -6.8610    0.0000 Cl  0  0  0  0  0  0  0  0  0  0  0  0
  8  9  2  0
  2  3  1  0
  9 10  1  0
 18 13  1  0
 13 19  2  0
 19 20  1  0
 20 17  1  0
  3  4  1  0
 20 21  1  0
 10 11  2  0
 17 22  1  0
  4  5  1  0
 15 23  1  0
 11 12  1  0
 23 24  1  0
 12  7  2  0
 24 25  1  0
 25  1  1  0
  4  7  1  0
 21 26  2  0
  5  6  1  0
 26 27  1  0
 27 32  2  0
  1  2  1  0
 31 28  2  0
 28 21  1  0
 13 14  1  0
 11 29  1  0
 19 30  1  0
 31 32  1  0
 14 15  1  0
  7  8  1  0
 14 16  2  0
 24 33  1  0
 17 18  2  0
 12 34  1  0
  1  6  1  0
 32 35  1  0
M  END
>  <ACTIVITY>  (71) 
78.3

$$$$

     RDKit          2D

 41 40  0  0  0  0  0  0  0  0999 V2000
    5.1945   -3.0045    0.0000 N   0  0  0  0  0  0  0  0  0  0  0  0
    5.1969   -1.5045    0.0000 C   0  0  0  0  0  0  0  0  0  0  0  0
    3.8991   -0.7525    0.0000 C   0  0  0  0  0  0  0  0  0  0  0  0
    2.5987   -1.5004    0.0000 N   0  0  0  0  0  0  0  0  0  0  0  0
    2.5965   -3.0004    0.0000 C   0  0  0  0  0  0  0  0  0  0  0  0
    3.8943   -3.7525    0.0000 C   0  0  0  0  0  0  0  0  0  0  0  0
    1.2990   -0.7500    0.0000 C   0  0  0  0  0  0  0  0  0  0  0  0
    0.0000   -1.5000    0.0000 C   0  0  0  0  0  0  0  0  0  0  0  0
   -1.2990   -0.7500    0.0000 C   0  0  0  0  0  0  0  0  0  0  0  0
   -1.2990    0.7500    0.0000 C   0  0  0  0  0  0  0  0  0  0  0  0
    0.0000    1.5000    0.0000 C   0  0  0  0  0  0  0  0  0  0  0  0
    1.2990    0.7500    0.0000 C   0  0  0  0  0  0  0  0  0  0  0  0
    9.0720   -9.7724    0.0000 C   0  0  0  0  0  0  0  0  0  0  0  0
    9.0765   -8.2716    0.0000 C   0  0  0  0  0  0  0  0  0  0  0  0
    7.7795   -7.5165    0.0000 N   0  0  0  0  0  0  0  0  0  0  0  0
   10.1178   -7.6751    0.0000 O   0  0  0  0  0  0  0  0  0  0  0  0
    8.3104  -12.0550    0.0000 C   0  0  0  0  0  0  0  0  0  0  0  0
    7.8541  -10.6261    0.0000 N   0  0  0  0  0  0  0  0  0  0  0  0
   10.2812  -10.6384    0.0000 C   0  0  0  0  0  0  0  0  0  0  0  0
    9.8104  -12.0626    0.0000 N   0  0  0  0  0  0  0  0  0  0  0  0
   10.6864  -13.2812    0.0000 C   0  0  0  0  0  0  0  0  0  0  0  0
    7.4212  -13.2608    0.0000 C   0  0  0  0  0  0  0  0  0  0  0  0
    7.7840   -6.0157    0.0000 C   0  0  0  0  0  0  0  0  0  0  0  0
    6.4870   -5.2605    0.0000 C   0  0  0  0  0  0  0  0  0  0  0  0
    6.4915   -3.7597    0.0000 C   0  0  0  0  0  0  0  0  0  0  0  0
   10.1748  -14.6860    0.0000 C   0  0  0  0  0  0  0  0  0  0  0  0
   11.1395  -15.8346    0.0000 C   0  0  0  0  0  0  0  0  0  0  0  0
   12.1643  -13.0151    0.0000 C   0  0  0  0  0  0  0  0  0  0  0  0
    0.0000    2.7000    0.0000 Cl  0  0  0  0  0  0  0  0  0  0  0  0
   11.4221  -10.2666    0.0000 C   0  0  0  0  0  0  0  0  0  0  0  0
   13.1290  -14.1637    0.0000 C   0  0  0  0  0  0  0  0  0  0  0  0
   12.6166  -15.5735    0.0000 C   0  0  0  0  0  0  0  0  0  0  0  0
    5.4458   -5.8570    0.0000 O   0  0  0  0  0  0  0  0  0  0  0  0
    2.3383    1.3500    0.0000 Cl  0  0  0  0  0  0  0  0  0  0  0  0
   13.3884  -16.4924    0.0000 F   0  0  0  0  0  0  0  0  0  0  0  0
    5.9296  -13.0942    0.0000 C   0  0  0  0  0  0  0  0  0  0  0  0
    5.2174  -14.0600    0.0000 C   0  0  0  0  0  0  0  0  0  0  0  0
   23.5818   -6.8610    0.0000 Cl  0  0  0  0  0  0  0  0  0  0  0  0
   21.0818   -6.8610    0.0000 Cl  0  0  0  0  0  0  0  0  0  0  0  0
   18.5818   -6.8610    0.0000 Cl  0  0  0  0  0  0  0  0  0  0  0  0
   16.0818   -6.8610    0.0000 Cl  0  0  0  0  0  0  0  0  0  0  0  0
  9 10  2  0
 18 13  1  0
 13 19  2  0
 19 20  1  0
 20 17  1  0
  3  4  1  0
 20 21  1  0
 10 11  1  0
 17 22  1  0
  4  5  1  0
 15 23  1  0
 11 12  2  0
 23 24  1  0
 12  7  1  0
 24 25  1  0
 25  1  1  0
  4  7  1  0
 21 26  2  0
  5  6  1  0
 26 27  1  0
 27 32  2  0
  1  2  1  0
 31 28  2  0
 28 21  1  0
 13 14  1  0
 11 29  1  0
 19 30  1  0
 31 32  1  0
 14 15  1  0
  7  8  2  0
 14 16  2  0
 24 33  1  0
 17 18  2  0
 12 34  1  0
  1  6  1  0
 32 35  1  0
  8  9  1  0
 22 36  1  0
  2  3  1  0
 36 37  1  0
M  END
>  <ACTIVITY>  (72) 
196

$$$$

     RDKit          2D

 39 40  0  0  0  0  0  0  0  0999 V2000
   15.4291  -18.9008    0.0000 N   0  0  0  0  0  0  0  0  0  0  0  0
   16.1379  -18.4840    0.0000 C   0  0  0  0  0  0  0  0  0  0  0  0
   16.8503  -18.8930    0.0000 C   0  0  0  0  0  0  0  0  0  0  0  0
   16.8545  -19.7184    0.0000 N   0  0  0  0  0  0  0  0  0  0  0  0
   16.1402  -20.1331    0.0000 C   0  0  0  0  0  0  0  0  0  0  0  0
   15.4217  -19.7224    0.0000 C   0  0  0  0  0  0  0  0  0  0  0  0
   17.5691  -20.1277    0.0000 C   0  0  0  0  0  0  0  0  0  0  0  0
   18.2823  -19.7108    0.0000 C   0  0  0  0  0  0  0  0  0  0  0  0
   18.9978  -20.1199    0.0000 C   0  0  0  0  0  0  0  0  0  0  0  0
   19.0014  -20.9457    0.0000 C   0  0  0  0  0  0  0  0  0  0  0  0
   18.2834  -21.3608    0.0000 C   0  0  0  0  0  0  0  0  0  0  0  0
   17.5708  -20.9493    0.0000 C   0  0  0  0  0  0  0  0  0  0  0  0
   11.1443  -18.9034    0.0000 C   0  0  0  0  0  0  0  0  0  0  0  0
   11.8587  -18.4909    0.0000 C   0  0  0  0  0  0  0  0  0  0  0  0
   12.5732  -18.9034    0.0000 N   0  0  0  0  0  0  0  0  0  0  0  0
   11.8587  -17.6659    0.0000 O   0  0  0  0  0  0  0  0  0  0  0  0
   10.0624  -19.6871    0.0000 C   0  0  0  0  0  0  0  0  0  0  0  0
   10.8875  -19.6875    0.0000 N   0  0  0  0  0  0  0  0  0  0  0  0
   10.4750  -18.4167    0.0000 C   0  0  0  0  0  0  0  0  0  0  0  0
    9.8092  -18.9037    0.0000 N   0  0  0  0  0  0  0  0  0  0  0  0
    9.0948  -18.4895    0.0000 C   0  0  0  0  0  0  0  0  0  0  0  0
    9.6476  -20.4002    0.0000 C   0  0  0  0  0  0  0  0  0  0  0  0
   13.2877  -18.4909    0.0000 C   0  0  0  0  0  0  0  0  0  0  0  0
   14.0022  -18.9034    0.0000 C   0  0  0  0  0  0  0  0  0  0  0  0
   14.7166  -18.4909    0.0000 C   0  0  0  0  0  0  0  0  0  0  0  0
    9.0981  -17.6648    0.0000 C   0  0  0  0  0  0  0  0  0  0  0  0
    8.3846  -17.2507    0.0000 C   0  0  0  0  0  0  0  0  0  0  0  0
    8.3831  -18.9026    0.0000 C   0  0  0  0  0  0  0  0  0  0  0  0
   18.2837  -22.1858    0.0000 C   0  0  0  0  0  0  0  0  0  0  0  0
   10.4738  -17.5917    0.0000 C   0  0  0  0  0  0  0  0  0  0  0  0
    7.6669  -18.4930    0.0000 C   0  0  0  0  0  0  0  0  0  0  0  0
    7.6645  -17.6622    0.0000 C   0  0  0  0  0  0  0  0  0  0  0  0
   14.0022  -19.7284    0.0000 O   0  0  0  0  0  0  0  0  0  0  0  0
   16.8568  -21.3625    0.0000 C   0  0  0  0  0  0  0  0  0  0  0  0
    6.9503  -17.2491    0.0000 F   0  0  0  0  0  0  0  0  0  0  0  0
    8.8226  -20.3975    0.0000 C   0  0  0  0  0  0  0  0  0  0  0  0
    8.4077  -21.1106    0.0000 C   0  0  0  0  0  0  0  0  0  0  0  0
   10.9821  -21.5357    0.0000 Cl  0  0  0  0  0  0  0  0  0  0  0  0
   13.0179  -21.6429    0.0000 Cl  0  0  0  0  0  0  0  0  0  0  0  0
  9 10  2  0
 18 13  1  0
 13 19  2  0
 19 20  1  0
 20 17  1  0
  3  4  1  0
 20 21  1  0
 10 11  1  0
 17 22  1  0
  4  5  1  0
 15 23  1  0
 11 12  2  0
 23 24  1  0
 12  7  1  0
 24 25  1  0
 25  1  1  0
  4  7  1  0
 21 26  2  0
  5  6  1  0
 26 27  1  0
 27 32  2  0
  1  2  1  0
 31 28  2  0
 28 21  1  0
 13 14  1  0
 11 29  1  0
 19 30  1  0
 31 32  1  0
 14 15  1  0
  7  8  2  0
 14 16  2  0
 24 33  1  0
 17 18  2  0
 12 34  1  0
  1  6  1  0
 32 35  1  0
  8  9  1  0
 22 36  1  0
  2  3  1  0
 36 37  1  0
M  END
>  <ACTIVITY>  (73) 
327

$$$$

     RDKit          2D

 42 44  0  0  0  0  0  0  0  0999 V2000
    1.2990   -0.7500    0.0000 N   0  0  0  0  0  0  0  0  0  0  0  0
    1.2990    0.7500    0.0000 C   0  0  0  0  0  0  0  0  0  0  0  0
    0.0000    1.5000    0.0000 C   0  0  0  0  0  0  0  0  0  0  0  0
   -1.2990    0.7500    0.0000 N   0  0  0  0  0  0  0  0  0  0  0  0
   -1.2990   -0.7500    0.0000 C   0  0  0  0  0  0  0  0  0  0  0  0
    0.0000   -1.5000    0.0000 C   0  0  0  0  0  0  0  0  0  0  0  0
   -2.5987    1.5004    0.0000 C   0  0  0  0  0  0  0  0  0  0  0  0
   -3.8967    0.7484    0.0000 C   0  0  0  0  0  0  0  0  0  0  0  0
   -5.1969    1.4963    0.0000 C   0  0  0  0  0  0  0  0  0  0  0  0
   -5.1993    2.9963    0.0000 C   0  0  0  0  0  0  0  0  0  0  0  0
   -3.9015    3.7484    0.0000 C   0  0  0  0  0  0  0  0  0  0  0  0
   -2.6012    3.0004    0.0000 C   0  0  0  0  0  0  0  0  0  0  0  0
    5.1873   -7.5117    0.0000 C   0  0  0  0  0  0  0  0  0  0  0  0
    5.1894   -6.0109    0.0000 C   0  0  0  0  0  0  0  0  0  0  0  0
    3.8912   -5.2578    0.0000 N   0  0  0  0  0  0  0  0  0  0  0  0
    6.2297   -5.4127    0.0000 O   0  0  0  0  0  0  0  0  0  0  0  0
    4.4293   -9.7955    0.0000 C   0  0  0  0  0  0  0  0  0  0  0  0
    3.9707   -8.3673    0.0000 N   0  0  0  0  0  0  0  0  0  0  0  0
    6.3978   -8.3758    0.0000 C   0  0  0  0  0  0  0  0  0  0  0  0
    5.9293   -9.8007    0.0000 N   0  0  0  0  0  0  0  0  0  0  0  0
    6.8072  -11.0179    0.0000 C   0  0  0  0  0  0  0  0  0  0  0  0
    3.5430  -11.0066    0.0000 C   0  0  0  0  0  0  0  0  0  0  0  0
    3.8933   -3.7570    0.0000 C   0  0  0  0  0  0  0  0  0  0  0  0
    2.5951   -3.0039    0.0000 C   0  0  0  0  0  0  0  0  0  0  0  0
    2.5973   -1.5031    0.0000 C   0  0  0  0  0  0  0  0  0  0  0  0
    6.2979  -12.4235    0.0000 C   0  0  0  0  0  0  0  0  0  0  0  0
    7.2644  -13.5706    0.0000 C   0  0  0  0  0  0  0  0  0  0  0  0
    8.2847  -10.7495    0.0000 C   0  0  0  0  0  0  0  0  0  0  0  0
   -3.9034    4.9484    0.0000 C   0  0  0  0  0  0  0  0  0  0  0  0
    7.5381   -8.0021    0.0000 C   0  0  0  0  0  0  0  0  0  0  0  0
    9.2512  -11.8966    0.0000 C   0  0  0  0  0  0  0  0  0  0  0  0
    8.7411  -13.3071    0.0000 C   0  0  0  0  0  0  0  0  0  0  0  0
    1.5548   -3.6021    0.0000 O   0  0  0  0  0  0  0  0  0  0  0  0
   -1.5630    3.6021    0.0000 C   0  0  0  0  0  0  0  0  0  0  0  0
    9.5143  -14.2248    0.0000 F   0  0  0  0  0  0  0  0  0  0  0  0
    2.0488  -10.9565    0.0000 C   0  0  0  0  0  0  0  0  0  0  0  0
    1.2565  -12.2302    0.0000 C   0  0  0  0  0  0  0  0  0  0  0  0
    1.9634  -13.5532    0.0000 C   0  0  0  0  0  0  0  0  0  0  0  0
    3.4626  -13.6025    0.0000 C   0  0  0  0  0  0  0  0  0  0  0  0
    4.2549  -12.3288    0.0000 C   0  0  0  0  0  0  0  0  0  0  0  0
   14.7081   -4.6029    0.0000 Cl  0  0  0  0  0  0  0  0  0  0  0  0
   12.2081   -4.6029    0.0000 Cl  0  0  0  0  0  0  0  0  0  0  0  0
 19 20  1  0
 20 17  1  0
  3  4  1  0
 20 21  1  0
 10 11  1  0
 17 22  1  0
  4  5  1  0
 15 23  1  0
 11 12  2  0
 23 24  1  0
 12  7  1  0
 24 25  1  0
 25  1  1  0
  4  7  1  0
 21 26  2  0
  5  6  1  0
 26 27  1  0
 27 32  2  0
  1  2  1  0
 31 28  2  0
 28 21  1  0
 13 14  1  0
 11 29  1  0
 19 30  1  0
 31 32  1  0
 14 15  1  0
  7  8  2  0
 14 16  2  0
 24 33  1  0
 17 18  2  0
 12 34  1  0
  1  6  1  0
 32 35  1  0
  8  9  1  0
 22 36  2  0
  2  3  1  0
 36 37  1  0
  9 10  2  0
 37 38  2  0
 18 13  1  0
 38 39  1  0
 13 19  2  0
 39 40  2  0
 40 22  1  0
M  END
>  <ACTIVITY>  (74) 
71

$$$$

     RDKit          2D

 44 44  0  0  0  0  0  0  0  0999 V2000
    1.2990   -0.7500    0.0000 N   0  0  0  0  0  0  0  0  0  0  0  0
    1.2990    0.7500    0.0000 C   0  0  0  0  0  0  0  0  0  0  0  0
    0.0000    1.5000    0.0000 C   0  0  0  0  0  0  0  0  0  0  0  0
   -1.2990    0.7500    0.0000 N   0  0  0  0  0  0  0  0  0  0  0  0
   -1.2990   -0.7500    0.0000 C   0  0  0  0  0  0  0  0  0  0  0  0
    0.0000   -1.5000    0.0000 C   0  0  0  0  0  0  0  0  0  0  0  0
   -2.5987    1.5004    0.0000 C   0  0  0  0  0  0  0  0  0  0  0  0
   -3.8967    0.7484    0.0000 C   0  0  0  0  0  0  0  0  0  0  0  0
   -5.1969    1.4963    0.0000 C   0  0  0  0  0  0  0  0  0  0  0  0
   -5.1993    2.9963    0.0000 C   0  0  0  0  0  0  0  0  0  0  0  0
   -3.9015    3.7484    0.0000 C   0  0  0  0  0  0  0  0  0  0  0  0
   -2.6012    3.0004    0.0000 C   0  0  0  0  0  0  0  0  0  0  0  0
    5.1873   -7.5117    0.0000 C   0  0  0  0  0  0  0  0  0  0  0  0
    5.1894   -6.0109    0.0000 C   0  0  0  0  0  0  0  0  0  0  0  0
    3.8912   -5.2578    0.0000 N   0  0  0  0  0  0  0  0  0  0  0  0
    6.2297   -5.4127    0.0000 O   0  0  0  0  0  0  0  0  0  0  0  0
    4.4293   -9.7955    0.0000 C   0  0  0  0  0  0  0  0  0  0  0  0
    3.9707   -8.3673    0.0000 N   0  0  0  0  0  0  0  0  0  0  0  0
    6.3978   -8.3758    0.0000 C   0  0  0  0  0  0  0  0  0  0  0  0
    5.9293   -9.8007    0.0000 N   0  0  0  0  0  0  0  0  0  0  0  0
    6.8072  -11.0179    0.0000 C   0  0  0  0  0  0  0  0  0  0  0  0
    3.5430  -11.0066    0.0000 C   0  0  0  0  0  0  0  0  0  0  0  0
    3.8933   -3.7570    0.0000 C   0  0  0  0  0  0  0  0  0  0  0  0
    2.5951   -3.0039    0.0000 C   0  0  0  0  0  0  0  0  0  0  0  0
    2.5973   -1.5031    0.0000 C   0  0  0  0  0  0  0  0  0  0  0  0
    6.2979  -12.4235    0.0000 C   0  0  0  0  0  0  0  0  0  0  0  0
    7.2644  -13.5706    0.0000 C   0  0  0  0  0  0  0  0  0  0  0  0
    8.2847  -10.7495    0.0000 C   0  0  0  0  0  0  0  0  0  0  0  0
   -3.9034    4.9484    0.0000 Cl  0  0  0  0  0  0  0  0  0  0  0  0
    7.5381   -8.0021    0.0000 C   0  0  0  0  0  0  0  0  0  0  0  0
    9.2512  -11.8966    0.0000 C   0  0  0  0  0  0  0  0  0  0  0  0
    8.7411  -13.3071    0.0000 C   0  0  0  0  0  0  0  0  0  0  0  0
    1.5548   -3.6021    0.0000 O   0  0  0  0  0  0  0  0  0  0  0  0
   -1.5630    3.6021    0.0000 Cl  0  0  0  0  0  0  0  0  0  0  0  0
    9.5143  -14.2248    0.0000 F   0  0  0  0  0  0  0  0  0  0  0  0
    2.0488  -10.9565    0.0000 C   0  0  0  0  0  0  0  0  0  0  0  0
    1.2565  -12.2302    0.0000 C   0  0  0  0  0  0  0  0  0  0  0  0
    1.9634  -13.5532    0.0000 C   0  0  0  0  0  0  0  0  0  0  0  0
    3.4626  -13.6025    0.0000 C   0  0  0  0  0  0  0  0  0  0  0  0
    4.2549  -12.3288    0.0000 C   0  0  0  0  0  0  0  0  0  0  0  0
   19.7081   -4.6029    0.0000 Cl  0  0  0  0  0  0  0  0  0  0  0  0
   17.2081   -4.6029    0.0000 Cl  0  0  0  0  0  0  0  0  0  0  0  0
   14.7081   -4.6029    0.0000 Cl  0  0  0  0  0  0  0  0  0  0  0  0
   12.2081   -4.6029    0.0000 Cl  0  0  0  0  0  0  0  0  0  0  0  0
 19 20  1  0
 20 17  1  0
  3  4  1  0
 20 21  1  0
 10 11  1  0
 17 22  1  0
  4  5  1  0
 15 23  1  0
 11 12  2  0
 23 24  1  0
 12  7  1  0
 24 25  1  0
 25  1  1  0
  4  7  1  0
 21 26  2  0
  5  6  1  0
 26 27  1  0
 27 32  2  0
  1  2  1  0
 31 28  2  0
 28 21  1  0
 13 14  1  0
 11 29  1  0
 19 30  1  0
 31 32  1  0
 14 15  1  0
  7  8  2  0
 14 16  2  0
 24 33  1  0
 17 18  2  0
 12 34  1  0
  1  6  1  0
 32 35  1  0
  8  9  1  0
 22 36  2  0
  2  3  1  0
 36 37  1  0
  9 10  2  0
 37 38  2  0
 18 13  1  0
 38 39  1  0
 13 19  2  0
 39 40  2  0
 40 22  1  0
M  END
>  <ACTIVITY>  (75) 
94

$$$$

     RDKit          2D

 43 44  0  0  0  0  0  0  0  0999 V2000
    1.2990   -0.7500    0.0000 N   0  0  0  0  0  0  0  0  0  0  0  0
    1.2990    0.7500    0.0000 C   0  0  0  0  0  0  0  0  0  0  0  0
    0.0000    1.5000    0.0000 C   0  0  0  0  0  0  0  0  0  0  0  0
   -1.2990    0.7500    0.0000 N   0  0  0  0  0  0  0  0  0  0  0  0
   -1.2990   -0.7500    0.0000 C   0  0  0  0  0  0  0  0  0  0  0  0
    0.0000   -1.5000    0.0000 C   0  0  0  0  0  0  0  0  0  0  0  0
   -2.5987    1.5004    0.0000 C   0  0  0  0  0  0  0  0  0  0  0  0
   -3.8967    0.7484    0.0000 C   0  0  0  0  0  0  0  0  0  0  0  0
   -5.1969    1.4963    0.0000 C   0  0  0  0  0  0  0  0  0  0  0  0
   -5.1993    2.9963    0.0000 C   0  0  0  0  0  0  0  0  0  0  0  0
   -3.9015    3.7484    0.0000 C   0  0  0  0  0  0  0  0  0  0  0  0
   -2.6012    3.0004    0.0000 C   0  0  0  0  0  0  0  0  0  0  0  0
    5.1873   -7.5117    0.0000 C   0  0  0  0  0  0  0  0  0  0  0  0
    5.1894   -6.0109    0.0000 C   0  0  0  0  0  0  0  0  0  0  0  0
    3.8912   -5.2578    0.0000 N   0  0  0  0  0  0  0  0  0  0  0  0
    6.2297   -5.4127    0.0000 O   0  0  0  0  0  0  0  0  0  0  0  0
    4.4293   -9.7955    0.0000 C   0  0  0  0  0  0  0  0  0  0  0  0
    3.9707   -8.3673    0.0000 N   0  0  0  0  0  0  0  0  0  0  0  0
    6.3978   -8.3758    0.0000 C   0  0  0  0  0  0  0  0  0  0  0  0
    5.9293   -9.8007    0.0000 N   0  0  0  0  0  0  0  0  0  0  0  0
    6.8072  -11.0179    0.0000 C   0  0  0  0  0  0  0  0  0  0  0  0
    3.5430  -11.0066    0.0000 C   0  0  0  0  0  0  0  0  0  0  0  0
    3.8933   -3.7570    0.0000 C   0  0  0  0  0  0  0  0  0  0  0  0
    2.5951   -3.0039    0.0000 C   0  0  0  0  0  0  0  0  0  0  0  0
    2.5973   -1.5031    0.0000 C   0  0  0  0  0  0  0  0  0  0  0  0
    6.2979  -12.4235    0.0000 C   0  0  0  0  0  0  0  0  0  0  0  0
    7.2644  -13.5706    0.0000 C   0  0  0  0  0  0  0  0  0  0  0  0
    8.2847  -10.7495    0.0000 C   0  0  0  0  0  0  0  0  0  0  0  0
   -3.9034    4.9484    0.0000 Cl  0  0  0  0  0  0  0  0  0  0  0  0
    7.5381   -8.0021    0.0000 C   0  0  0  0  0  0  0  0  0  0  0  0
    9.2512  -11.8966    0.0000 C   0  0  0  0  0  0  0  0  0  0  0  0
    8.7411  -13.3071    0.0000 C   0  0  0  0  0  0  0  0  0  0  0  0
    1.5548   -3.6021    0.0000 O   0  0  0  0  0  0  0  0  0  0  0  0
   -1.5630    3.6021    0.0000 C   0  0  0  0  0  0  0  0  0  0  0  0
    9.5143  -14.2248    0.0000 F   0  0  0  0  0  0  0  0  0  0  0  0
    2.0488  -10.9565    0.0000 C   0  0  0  0  0  0  0  0  0  0  0  0
    1.2565  -12.2302    0.0000 C   0  0  0  0  0  0  0  0  0  0  0  0
    1.9634  -13.5532    0.0000 C   0  0  0  0  0  0  0  0  0  0  0  0
    3.4626  -13.6025    0.0000 C   0  0  0  0  0  0  0  0  0  0  0  0
    4.2549  -12.3288    0.0000 C   0  0  0  0  0  0  0  0  0  0  0  0
   17.2081   -4.6029    0.0000 Cl  0  0  0  0  0  0  0  0  0  0  0  0
   14.7081   -4.6029    0.0000 Cl  0  0  0  0  0  0  0  0  0  0  0  0
   12.2081   -4.6029    0.0000 Cl  0  0  0  0  0  0  0  0  0  0  0  0
 19 20  1  0
 20 17  1  0
  3  4  1  0
 20 21  1  0
 10 11  1  0
 17 22  1  0
  4  5  1  0
 15 23  1  0
 11 12  2  0
 23 24  1  0
 12  7  1  0
 24 25  1  0
 25  1  1  0
  4  7  1  0
 21 26  2  0
  5  6  1  0
 26 27  1  0
 27 32  2  0
  1  2  1  0
 31 28  2  0
 28 21  1  0
 13 14  1  0
 11 29  1  0
 19 30  1  0
 31 32  1  0
 14 15  1  0
  7  8  2  0
 14 16  2  0
 24 33  1  0
 17 18  2  0
 12 34  1  0
  1  6  1  0
 32 35  1  0
  8  9  1  0
 22 36  2  0
  2  3  1  0
 36 37  1  0
  9 10  2  0
 37 38  2  0
 18 13  1  0
 38 39  1  0
 13 19  2  0
 39 40  2  0
 40 22  1  0
M  END
>  <ACTIVITY>  (76) 
26.7

$$$$

     RDKit          2D

 38 38  0  0  0  0  0  0  0  0999 V2000
    5.1945   -3.0045    0.0000 N   0  0  0  0  0  0  0  0  0  0  0  0
    5.1969   -1.5045    0.0000 C   0  0  0  0  0  0  0  0  0  0  0  0
    3.8991   -0.7525    0.0000 C   0  0  0  0  0  0  0  0  0  0  0  0
    2.5987   -1.5004    0.0000 N   0  0  0  0  0  0  0  0  0  0  0  0
    2.5965   -3.0004    0.0000 C   0  0  0  0  0  0  0  0  0  0  0  0
    3.8943   -3.7525    0.0000 C   0  0  0  0  0  0  0  0  0  0  0  0
    1.2990   -0.7500    0.0000 C   0  0  0  0  0  0  0  0  0  0  0  0
    0.0000   -1.5000    0.0000 C   0  0  0  0  0  0  0  0  0  0  0  0
   -1.2990   -0.7500    0.0000 C   0  0  0  0  0  0  0  0  0  0  0  0
   -1.2990    0.7500    0.0000 C   0  0  0  0  0  0  0  0  0  0  0  0
    0.0000    1.5000    0.0000 C   0  0  0  0  0  0  0  0  0  0  0  0
    1.2990    0.7500    0.0000 C   0  0  0  0  0  0  0  0  0  0  0  0
    9.0720   -9.7724    0.0000 C   0  0  0  0  0  0  0  0  0  0  0  0
    9.0765   -8.2716    0.0000 C   0  0  0  0  0  0  0  0  0  0  0  0
    7.7795   -7.5165    0.0000 N   0  0  0  0  0  0  0  0  0  0  0  0
   10.1178   -7.6751    0.0000 O   0  0  0  0  0  0  0  0  0  0  0  0
    8.3104  -12.0550    0.0000 C   0  0  0  0  0  0  0  0  0  0  0  0
    7.8541  -10.6261    0.0000 N   0  0  0  0  0  0  0  0  0  0  0  0
   10.2812  -10.6384    0.0000 C   0  0  0  0  0  0  0  0  0  0  0  0
    9.8104  -12.0626    0.0000 N   0  0  0  0  0  0  0  0  0  0  0  0
   10.6864  -13.2812    0.0000 C   0  0  0  0  0  0  0  0  0  0  0  0
    7.6002  -13.0223    0.0000 C   0  0  0  0  0  0  0  0  0  0  0  0
    7.7840   -6.0157    0.0000 C   0  0  0  0  0  0  0  0  0  0  0  0
    6.4870   -5.2605    0.0000 C   0  0  0  0  0  0  0  0  0  0  0  0
    6.4915   -3.7597    0.0000 C   0  0  0  0  0  0  0  0  0  0  0  0
   12.1643  -13.0151    0.0000 C   0  0  0  0  0  0  0  0  0  0  0  0
   13.1290  -14.1637    0.0000 C   0  0  0  0  0  0  0  0  0  0  0  0
   10.1748  -14.6860    0.0000 C   0  0  0  0  0  0  0  0  0  0  0  0
    0.0000    2.7000    0.0000 C   0  0  0  0  0  0  0  0  0  0  0  0
   11.4221  -10.2666    0.0000 C   0  0  0  0  0  0  0  0  0  0  0  0
   11.1395  -15.8346    0.0000 C   0  0  0  0  0  0  0  0  0  0  0  0
   12.6166  -15.5735    0.0000 C   0  0  0  0  0  0  0  0  0  0  0  0
    5.4458   -5.8570    0.0000 O   0  0  0  0  0  0  0  0  0  0  0  0
    2.3383    1.3500    0.0000 C   0  0  0  0  0  0  0  0  0  0  0  0
    8.9931  -14.8945    0.0000 Cl  0  0  0  0  0  0  0  0  0  0  0  0
   20.6290   -6.4169    0.0000 Cl  0  0  0  0  0  0  0  0  0  0  0  0
   18.1290   -6.4169    0.0000 Cl  0  0  0  0  0  0  0  0  0  0  0  0
   15.6290   -6.4169    0.0000 Cl  0  0  0  0  0  0  0  0  0  0  0  0
  8  9  2  0
  2  3  1  0
  9 10  1  0
 18 13  1  0
 13 19  2  0
 19 20  1  0
 20 17  1  0
  3  4  1  0
 20 21  1  0
 10 11  2  0
 17 22  1  0
  4  5  1  0
 15 23  1  0
 11 12  1  0
 23 24  1  0
 12  7  2  0
 24 25  1  0
 25  1  1  0
  4  7  1  0
 21 26  2  0
  5  6  1  0
 26 27  1  0
 27 32  2  0
  1  2  1  0
 31 28  2  0
 28 21  1  0
 13 14  1  0
 11 29  1  0
 19 30  1  0
 31 32  1  0
 14 15  1  0
  7  8  1  0
 14 16  2  0
 24 33  1  0
 17 18  2  0
 12 34  1  0
  1  6  1  0
 28 35  1  0
M  END
>  <ACTIVITY>  (77) 
318

$$$$

     RDKit          2D

 39 38  0  0  0  0  0  0  0  0999 V2000
    5.1945   -3.0045    0.0000 N   0  0  0  0  0  0  0  0  0  0  0  0
    5.1969   -1.5045    0.0000 C   0  0  0  0  0  0  0  0  0  0  0  0
    3.8991   -0.7525    0.0000 C   0  0  0  0  0  0  0  0  0  0  0  0
    2.5987   -1.5004    0.0000 N   0  0  0  0  0  0  0  0  0  0  0  0
    2.5965   -3.0004    0.0000 C   0  0  0  0  0  0  0  0  0  0  0  0
    3.8943   -3.7525    0.0000 C   0  0  0  0  0  0  0  0  0  0  0  0
    1.2990   -0.7500    0.0000 C   0  0  0  0  0  0  0  0  0  0  0  0
    0.0000   -1.5000    0.0000 C   0  0  0  0  0  0  0  0  0  0  0  0
   -1.2990   -0.7500    0.0000 C   0  0  0  0  0  0  0  0  0  0  0  0
   -1.2990    0.7500    0.0000 C   0  0  0  0  0  0  0  0  0  0  0  0
    0.0000    1.5000    0.0000 C   0  0  0  0  0  0  0  0  0  0  0  0
    1.2990    0.7500    0.0000 C   0  0  0  0  0  0  0  0  0  0  0  0
    9.0720   -9.7724    0.0000 C   0  0  0  0  0  0  0  0  0  0  0  0
    9.0765   -8.2716    0.0000 C   0  0  0  0  0  0  0  0  0  0  0  0
    7.7795   -7.5165    0.0000 N   0  0  0  0  0  0  0  0  0  0  0  0
   10.1178   -7.6751    0.0000 O   0  0  0  0  0  0  0  0  0  0  0  0
    8.3104  -12.0550    0.0000 C   0  0  0  0  0  0  0  0  0  0  0  0
    7.8541  -10.6261    0.0000 N   0  0  0  0  0  0  0  0  0  0  0  0
   10.2812  -10.6384    0.0000 C   0  0  0  0  0  0  0  0  0  0  0  0
    9.8104  -12.0626    0.0000 N   0  0  0  0  0  0  0  0  0  0  0  0
   10.6864  -13.2812    0.0000 C   0  0  0  0  0  0  0  0  0  0  0  0
    7.6002  -13.0223    0.0000 C   0  0  0  0  0  0  0  0  0  0  0  0
    7.7840   -6.0157    0.0000 C   0  0  0  0  0  0  0  0  0  0  0  0
    6.4870   -5.2605    0.0000 C   0  0  0  0  0  0  0  0  0  0  0  0
    6.4915   -3.7597    0.0000 C   0  0  0  0  0  0  0  0  0  0  0  0
   10.1748  -14.6860    0.0000 C   0  0  0  0  0  0  0  0  0  0  0  0
   11.1395  -15.8346    0.0000 C   0  0  0  0  0  0  0  0  0  0  0  0
   12.1643  -13.0151    0.0000 C   0  0  0  0  0  0  0  0  0  0  0  0
    0.0000    2.7000    0.0000 Cl  0  0  0  0  0  0  0  0  0  0  0  0
   11.4221  -10.2666    0.0000 C   0  0  0  0  0  0  0  0  0  0  0  0
   13.1290  -14.1637    0.0000 C   0  0  0  0  0  0  0  0  0  0  0  0
   12.6166  -15.5735    0.0000 C   0  0  0  0  0  0  0  0  0  0  0  0
    5.4458   -5.8570    0.0000 O   0  0  0  0  0  0  0  0  0  0  0  0
    2.3383    1.3500    0.0000 C   0  0  0  0  0  0  0  0  0  0  0  0
   14.3107  -13.9548    0.0000 Cl  0  0  0  0  0  0  0  0  0  0  0  0
   24.6069   -6.4169    0.0000 Cl  0  0  0  0  0  0  0  0  0  0  0  0
   22.1069   -6.4169    0.0000 Cl  0  0  0  0  0  0  0  0  0  0  0  0
   19.6069   -6.4169    0.0000 Cl  0  0  0  0  0  0  0  0  0  0  0  0
   17.1069   -6.4169    0.0000 Cl  0  0  0  0  0  0  0  0  0  0  0  0
  8  9  2  0
  2  3  1  0
  9 10  1  0
 18 13  1  0
 13 19  2  0
 19 20  1  0
 20 17  1  0
  3  4  1  0
 20 21  1  0
 10 11  2  0
 17 22  1  0
  4  5  1  0
 15 23  1  0
 11 12  1  0
 23 24  1  0
 12  7  2  0
 24 25  1  0
 25  1  1  0
  4  7  1  0
 21 26  2  0
  5  6  1  0
 26 27  1  0
 27 32  2  0
  1  2  1  0
 31 28  2  0
 28 21  1  0
 13 14  1  0
 11 29  1  0
 19 30  1  0
 31 32  1  0
 14 15  1  0
  7  8  1  0
 14 16  2  0
 24 33  1  0
 17 18  2  0
 12 34  1  0
  1  6  1  0
 31 35  1  0
M  END
>  <ACTIVITY>  (78) 
182.1

$$$$

     RDKit          2D

 38 38  0  0  0  0  0  0  0  0999 V2000
    5.1945   -3.0045    0.0000 N   0  0  0  0  0  0  0  0  0  0  0  0
    5.1969   -1.5045    0.0000 C   0  0  0  0  0  0  0  0  0  0  0  0
    3.8991   -0.7525    0.0000 C   0  0  0  0  0  0  0  0  0  0  0  0
    2.5987   -1.5004    0.0000 N   0  0  0  0  0  0  0  0  0  0  0  0
    2.5965   -3.0004    0.0000 C   0  0  0  0  0  0  0  0  0  0  0  0
    3.8943   -3.7525    0.0000 C   0  0  0  0  0  0  0  0  0  0  0  0
    1.2990   -0.7500    0.0000 C   0  0  0  0  0  0  0  0  0  0  0  0
    0.0000   -1.5000    0.0000 C   0  0  0  0  0  0  0  0  0  0  0  0
   -1.2990   -0.7500    0.0000 C   0  0  0  0  0  0  0  0  0  0  0  0
   -1.2990    0.7500    0.0000 C   0  0  0  0  0  0  0  0  0  0  0  0
    0.0000    1.5000    0.0000 C   0  0  0  0  0  0  0  0  0  0  0  0
    1.2990    0.7500    0.0000 C   0  0  0  0  0  0  0  0  0  0  0  0
    9.0720   -9.7724    0.0000 C   0  0  0  0  0  0  0  0  0  0  0  0
    9.0765   -8.2716    0.0000 C   0  0  0  0  0  0  0  0  0  0  0  0
    7.7795   -7.5165    0.0000 N   0  0  0  0  0  0  0  0  0  0  0  0
   10.1178   -7.6751    0.0000 O   0  0  0  0  0  0  0  0  0  0  0  0
    8.3104  -12.0550    0.0000 C   0  0  0  0  0  0  0  0  0  0  0  0
    7.8541  -10.6261    0.0000 N   0  0  0  0  0  0  0  0  0  0  0  0
   10.2812  -10.6384    0.0000 C   0  0  0  0  0  0  0  0  0  0  0  0
    9.8104  -12.0626    0.0000 N   0  0  0  0  0  0  0  0  0  0  0  0
   10.6864  -13.2812    0.0000 C   0  0  0  0  0  0  0  0  0  0  0  0
    7.6002  -13.0223    0.0000 C   0  0  0  0  0  0  0  0  0  0  0  0
    7.7840   -6.0157    0.0000 C   0  0  0  0  0  0  0  0  0  0  0  0
    6.4870   -5.2605    0.0000 C   0  0  0  0  0  0  0  0  0  0  0  0
    6.4915   -3.7597    0.0000 C   0  0  0  0  0  0  0  0  0  0  0  0
   10.1748  -14.6860    0.0000 C   0  0  0  0  0  0  0  0  0  0  0  0
   11.1395  -15.8346    0.0000 C   0  0  0  0  0  0  0  0  0  0  0  0
   12.1643  -13.0151    0.0000 C   0  0  0  0  0  0  0  0  0  0  0  0
    0.0000    2.7000    0.0000 C   0  0  0  0  0  0  0  0  0  0  0  0
   11.4221  -10.2666    0.0000 C   0  0  0  0  0  0  0  0  0  0  0  0
   13.1290  -14.1637    0.0000 C   0  0  0  0  0  0  0  0  0  0  0  0
   12.6166  -15.5735    0.0000 C   0  0  0  0  0  0  0  0  0  0  0  0
    5.4458   -5.8570    0.0000 O   0  0  0  0  0  0  0  0  0  0  0  0
    2.3383    1.3500    0.0000 C   0  0  0  0  0  0  0  0  0  0  0  0
   14.3107  -13.9548    0.0000 Cl  0  0  0  0  0  0  0  0  0  0  0  0
   22.1069   -6.4169    0.0000 Cl  0  0  0  0  0  0  0  0  0  0  0  0
   19.6069   -6.4169    0.0000 Cl  0  0  0  0  0  0  0  0  0  0  0  0
   17.1069   -6.4169    0.0000 Cl  0  0  0  0  0  0  0  0  0  0  0  0
  8  9  2  0
  2  3  1  0
  9 10  1  0
 18 13  1  0
 13 19  2  0
 19 20  1  0
 20 17  1  0
  3  4  1  0
 20 21  1  0
 10 11  2  0
 17 22  1  0
  4  5  1  0
 15 23  1  0
 11 12  1  0
 23 24  1  0
 12  7  2  0
 24 25  1  0
 25  1  1  0
  4  7  1  0
 21 26  2  0
  5  6  1  0
 26 27  1  0
 27 32  2  0
  1  2  1  0
 31 28  2  0
 28 21  1  0
 13 14  1  0
 11 29  1  0
 19 30  1  0
 31 32  1  0
 14 15  1  0
  7  8  1  0
 14 16  2  0
 24 33  1  0
 17 18  2  0
 12 34  1  0
  1  6  1  0
 31 35  1  0
M  END
>  <ACTIVITY>  (79) 
275.1

$$$$

     RDKit          2D

 41 39  0  0  0  0  0  0  0  0999 V2000
    1.2990   -0.7500    0.0000 N   0  0  0  0  0  0  0  0  0  0  0  0
    1.2990    0.7500    0.0000 C   0  0  0  0  0  0  0  0  0  0  0  0
    0.0000    1.5000    0.0000 C   0  0  0  0  0  0  0  0  0  0  0  0
   -1.2990    0.7500    0.0000 N   0  0  0  0  0  0  0  0  0  0  0  0
   -1.2990   -0.7500    0.0000 C   0  0  0  0  0  0  0  0  0  0  0  0
    0.0000   -1.5000    0.0000 C   0  0  0  0  0  0  0  0  0  0  0  0
   -2.5987    1.5004    0.0000 C   0  0  0  0  0  0  0  0  0  0  0  0
   -3.8967    0.7484    0.0000 C   0  0  0  0  0  0  0  0  0  0  0  0
   -5.1969    1.4963    0.0000 C   0  0  0  0  0  0  0  0  0  0  0  0
   -5.1993    2.9963    0.0000 C   0  0  0  0  0  0  0  0  0  0  0  0
   -3.9015    3.7484    0.0000 C   0  0  0  0  0  0  0  0  0  0  0  0
   -2.6012    3.0004    0.0000 C   0  0  0  0  0  0  0  0  0  0  0  0
    5.1873   -7.5117    0.0000 C   0  0  0  0  0  0  0  0  0  0  0  0
    5.1894   -6.0109    0.0000 C   0  0  0  0  0  0  0  0  0  0  0  0
    3.8912   -5.2578    0.0000 N   0  0  0  0  0  0  0  0  0  0  0  0
    6.2297   -5.4127    0.0000 O   0  0  0  0  0  0  0  0  0  0  0  0
    5.9293   -9.8007    0.0000 C   0  0  0  0  0  0  0  0  0  0  0  0
    6.3978   -8.3758    0.0000 N   0  0  0  0  0  0  0  0  0  0  0  0
    3.9707   -8.3673    0.0000 C   0  0  0  0  0  0  0  0  0  0  0  0
    4.4293   -9.7955    0.0000 N   0  0  0  0  0  0  0  0  0  0  0  0
    3.5430  -11.0066    0.0000 C   0  0  0  0  0  0  0  0  0  0  0  0
    6.8083  -11.0141    0.0000 C   0  0  0  0  0  0  0  0  0  0  0  0
    3.8933   -3.7570    0.0000 C   0  0  0  0  0  0  0  0  0  0  0  0
    2.5951   -3.0039    0.0000 C   0  0  0  0  0  0  0  0  0  0  0  0
    2.5973   -1.5031    0.0000 C   0  0  0  0  0  0  0  0  0  0  0  0
    4.0425  -12.4157    0.0000 C   0  0  0  0  0  0  0  0  0  0  0  0
    3.0681  -13.5560    0.0000 C   0  0  0  0  0  0  0  0  0  0  0  0
    2.0673  -10.7279    0.0000 C   0  0  0  0  0  0  0  0  0  0  0  0
   -3.9034    4.9484    0.0000 Cl  0  0  0  0  0  0  0  0  0  0  0  0
    1.0929  -11.8682    0.0000 C   0  0  0  0  0  0  0  0  0  0  0  0
    1.5932  -13.2823    0.0000 C   0  0  0  0  0  0  0  0  0  0  0  0
    1.5548   -3.6021    0.0000 O   0  0  0  0  0  0  0  0  0  0  0  0
   -1.5630    3.6021    0.0000 Cl  0  0  0  0  0  0  0  0  0  0  0  0
    0.8137  -14.1946    0.0000 Cl  0  0  0  0  0  0  0  0  0  0  0  0
    8.3012  -10.8602    0.0000 C   0  0  0  0  0  0  0  0  0  0  0  0
    9.0052  -11.8320    0.0000 C   0  0  0  0  0  0  0  0  0  0  0  0
   21.6816   -4.5871    0.0000 Cl  0  0  0  0  0  0  0  0  0  0  0  0
   19.1816   -4.5871    0.0000 Cl  0  0  0  0  0  0  0  0  0  0  0  0
   16.6816   -4.5871    0.0000 Cl  0  0  0  0  0  0  0  0  0  0  0  0
   14.1816   -4.5871    0.0000 Cl  0  0  0  0  0  0  0  0  0  0  0  0
   11.6816   -4.5871    0.0000 Cl  0  0  0  0  0  0  0  0  0  0  0  0
  2  3  1  0
  9 10  2  0
 18 13  1  0
 13 19  2  0
 19 20  1  0
 20 17  1  0
  3  4  1  0
 20 21  1  0
 10 11  1  0
 17 22  1  0
  4  5  1  0
 15 23  1  0
 11 12  2  0
 23 24  1  0
 12  7  1  0
 24 25  1  0
 25  1  1  0
  4  7  1  0
 21 26  2  0
  5  6  1  0
 26 27  1  0
 27 31  2  0
  1  2  1  0
 30 28  2  0
 28 21  1  0
 13 14  1  0
 11 29  1  0
 30 31  1  0
 14 15  1  0
  7  8  2  0
 24 32  1  0
 14 16  2  0
 12 33  1  0
 17 18  2  0
 31 34  1  0
  1  6  1  0
 22 35  1  0
  8  9  1  0
 35 36  1  0
M  END
>  <ACTIVITY>  (80) 
176.6

$$$$

     RDKit          2D

 40 39  0  0  0  0  0  0  0  0999 V2000
    1.2990   -0.7500    0.0000 N   0  0  0  0  0  0  0  0  0  0  0  0
    1.2990    0.7500    0.0000 C   0  0  0  0  0  0  0  0  0  0  0  0
    0.0000    1.5000    0.0000 C   0  0  0  0  0  0  0  0  0  0  0  0
   -1.2990    0.7500    0.0000 N   0  0  0  0  0  0  0  0  0  0  0  0
   -1.2990   -0.7500    0.0000 C   0  0  0  0  0  0  0  0  0  0  0  0
    0.0000   -1.5000    0.0000 C   0  0  0  0  0  0  0  0  0  0  0  0
   -2.5987    1.5004    0.0000 C   0  0  0  0  0  0  0  0  0  0  0  0
   -3.8967    0.7484    0.0000 C   0  0  0  0  0  0  0  0  0  0  0  0
   -5.1969    1.4963    0.0000 C   0  0  0  0  0  0  0  0  0  0  0  0
   -5.1993    2.9963    0.0000 C   0  0  0  0  0  0  0  0  0  0  0  0
   -3.9015    3.7484    0.0000 C   0  0  0  0  0  0  0  0  0  0  0  0
   -2.6012    3.0004    0.0000 C   0  0  0  0  0  0  0  0  0  0  0  0
    5.1873   -7.5117    0.0000 C   0  0  0  0  0  0  0  0  0  0  0  0
    5.1894   -6.0109    0.0000 C   0  0  0  0  0  0  0  0  0  0  0  0
    3.8912   -5.2578    0.0000 N   0  0  0  0  0  0  0  0  0  0  0  0
    6.2297   -5.4127    0.0000 O   0  0  0  0  0  0  0  0  0  0  0  0
    5.9293   -9.8007    0.0000 C   0  0  0  0  0  0  0  0  0  0  0  0
    6.3978   -8.3758    0.0000 N   0  0  0  0  0  0  0  0  0  0  0  0
    3.9707   -8.3673    0.0000 C   0  0  0  0  0  0  0  0  0  0  0  0
    4.4293   -9.7955    0.0000 N   0  0  0  0  0  0  0  0  0  0  0  0
    3.5430  -11.0066    0.0000 C   0  0  0  0  0  0  0  0  0  0  0  0
    6.8083  -11.0141    0.0000 C   0  0  0  0  0  0  0  0  0  0  0  0
    3.8933   -3.7570    0.0000 C   0  0  0  0  0  0  0  0  0  0  0  0
    2.5951   -3.0039    0.0000 C   0  0  0  0  0  0  0  0  0  0  0  0
    2.5973   -1.5031    0.0000 C   0  0  0  0  0  0  0  0  0  0  0  0
    4.0425  -12.4157    0.0000 C   0  0  0  0  0  0  0  0  0  0  0  0
    3.0681  -13.5560    0.0000 C   0  0  0  0  0  0  0  0  0  0  0  0
    2.0673  -10.7279    0.0000 C   0  0  0  0  0  0  0  0  0  0  0  0
   -3.9034    4.9484    0.0000 Cl  0  0  0  0  0  0  0  0  0  0  0  0
    1.0929  -11.8682    0.0000 C   0  0  0  0  0  0  0  0  0  0  0  0
    1.5932  -13.2823    0.0000 C   0  0  0  0  0  0  0  0  0  0  0  0
    1.5548   -3.6021    0.0000 O   0  0  0  0  0  0  0  0  0  0  0  0
   -1.5630    3.6021    0.0000 C   0  0  0  0  0  0  0  0  0  0  0  0
    0.8137  -14.1946    0.0000 Cl  0  0  0  0  0  0  0  0  0  0  0  0
    8.3012  -10.8602    0.0000 C   0  0  0  0  0  0  0  0  0  0  0  0
    9.0052  -11.8320    0.0000 C   0  0  0  0  0  0  0  0  0  0  0  0
   19.1816   -4.5871    0.0000 Cl  0  0  0  0  0  0  0  0  0  0  0  0
   16.6816   -4.5871    0.0000 Cl  0  0  0  0  0  0  0  0  0  0  0  0
   14.1816   -4.5871    0.0000 Cl  0  0  0  0  0  0  0  0  0  0  0  0
   11.6816   -4.5871    0.0000 Cl  0  0  0  0  0  0  0  0  0  0  0  0
  2  3  1  0
  9 10  2  0
 18 13  1  0
 13 19  2  0
 19 20  1  0
 20 17  1  0
  3  4  1  0
 20 21  1  0
 10 11  1  0
 17 22  1  0
  4  5  1  0
 15 23  1  0
 11 12  2  0
 23 24  1  0
 12  7  1  0
 24 25  1  0
 25  1  1  0
  4  7  1  0
 21 26  2  0
  5  6  1  0
 26 27  1  0
 27 31  2  0
  1  2  1  0
 30 28  2  0
 28 21  1  0
 13 14  1  0
 11 29  1  0
 30 31  1  0
 14 15  1  0
  7  8  2  0
 24 32  1  0
 14 16  2  0
 12 33  1  0
 17 18  2  0
 31 34  1  0
  1  6  1  0
 22 35  1  0
  8  9  1  0
 35 36  1  0
M  END
>  <ACTIVITY>  (81) 
107

$$$$

     RDKit          2D

 40 40  0  0  0  0  0  0  0  0999 V2000
    5.1945   -3.0045    0.0000 N   0  0  0  0  0  0  0  0  0  0  0  0
    5.1969   -1.5045    0.0000 C   0  0  0  0  0  0  0  0  0  0  0  0
    3.8991   -0.7525    0.0000 C   0  0  0  0  0  0  0  0  0  0  0  0
    2.5987   -1.5004    0.0000 N   0  0  0  0  0  0  0  0  0  0  0  0
    2.5965   -3.0004    0.0000 C   0  0  0  0  0  0  0  0  0  0  0  0
    3.8943   -3.7525    0.0000 C   0  0  0  0  0  0  0  0  0  0  0  0
    1.2990   -0.7500    0.0000 C   0  0  0  0  0  0  0  0  0  0  0  0
    0.0000   -1.5000    0.0000 C   0  0  0  0  0  0  0  0  0  0  0  0
   -1.2990   -0.7500    0.0000 C   0  0  0  0  0  0  0  0  0  0  0  0
   -1.2990    0.7500    0.0000 C   0  0  0  0  0  0  0  0  0  0  0  0
    0.0000    1.5000    0.0000 C   0  0  0  0  0  0  0  0  0  0  0  0
    1.2990    0.7500    0.0000 C   0  0  0  0  0  0  0  0  0  0  0  0
    9.0720   -9.7724    0.0000 C   0  0  0  0  0  0  0  0  0  0  0  0
    9.0765   -8.2716    0.0000 C   0  0  0  0  0  0  0  0  0  0  0  0
    7.7795   -7.5165    0.0000 N   0  0  0  0  0  0  0  0  0  0  0  0
   10.1178   -7.6751    0.0000 O   0  0  0  0  0  0  0  0  0  0  0  0
    8.3104  -12.0550    0.0000 C   0  0  0  0  0  0  0  0  0  0  0  0
    7.8541  -10.6261    0.0000 N   0  0  0  0  0  0  0  0  0  0  0  0
   10.2812  -10.6384    0.0000 C   0  0  0  0  0  0  0  0  0  0  0  0
    9.8104  -12.0626    0.0000 N   0  0  0  0  0  0  0  0  0  0  0  0
   10.6864  -13.2812    0.0000 C   0  0  0  0  0  0  0  0  0  0  0  0
    7.4212  -13.2608    0.0000 C   0  0  0  0  0  0  0  0  0  0  0  0
    7.7840   -6.0157    0.0000 C   0  0  0  0  0  0  0  0  0  0  0  0
    6.4870   -5.2605    0.0000 C   0  0  0  0  0  0  0  0  0  0  0  0
    6.4915   -3.7597    0.0000 C   0  0  0  0  0  0  0  0  0  0  0  0
   10.1748  -14.6860    0.0000 C   0  0  0  0  0  0  0  0  0  0  0  0
   11.1395  -15.8346    0.0000 C   0  0  0  0  0  0  0  0  0  0  0  0
   12.1643  -13.0151    0.0000 C   0  0  0  0  0  0  0  0  0  0  0  0
   13.1290  -14.1637    0.0000 C   0  0  0  0  0  0  0  0  0  0  0  0
   12.6166  -15.5735    0.0000 C   0  0  0  0  0  0  0  0  0  0  0  0
    5.4458   -5.8570    0.0000 O   0  0  0  0  0  0  0  0  0  0  0  0
    2.3383    1.3500    0.0000 C   0  0  0  0  0  0  0  0  0  0  0  0
   13.3884  -16.4924    0.0000 Cl  0  0  0  0  0  0  0  0  0  0  0  0
    5.9296  -13.0942    0.0000 C   0  0  0  0  0  0  0  0  0  0  0  0
    5.2174  -14.0600    0.0000 C   0  0  0  0  0  0  0  0  0  0  0  0
   11.4221  -10.2666    0.0000 C   0  0  0  0  0  0  0  0  0  0  0  0
   21.0818   -6.8610    0.0000 Cl  0  0  0  0  0  0  0  0  0  0  0  0
    0.0000    2.7000    0.0000 C   0  0  0  0  0  0  0  0  0  0  0  0
   18.5818   -6.8610    0.0000 Cl  0  0  0  0  0  0  0  0  0  0  0  0
   16.0818   -6.8610    0.0000 Cl  0  0  0  0  0  0  0  0  0  0  0  0
  9 10  2  0
 18 13  1  0
 13 19  2  0
 19 20  1  0
 20 17  1  0
  3  4  1  0
 20 21  1  0
 10 11  1  0
 17 22  1  0
  4  5  1  0
 15 23  1  0
 11 12  2  0
 23 24  1  0
 12  7  1  0
 24 25  1  0
 25  1  1  0
  4  7  1  0
 21 26  2  0
  5  6  1  0
 26 27  1  0
 27 30  2  0
  1  2  1  0
 29 28  2  0
 28 21  1  0
 13 14  1  0
 11 38  1  0
 29 30  1  0
 14 15  1  0
  7  8  2  0
 24 31  1  0
 14 16  2  0
 12 32  1  0
 17 18  2  0
 30 33  1  0
  1  6  1  0
 22 34  1  0
  8  9  1  0
 34 35  1  0
  2  3  1  0
 19 36  1  0
M  END
>  <ACTIVITY>  (82) 
147

$$$$

     RDKit          2D

 42 42  0  0  0  0  0  0  0  0999 V2000
  -11.8359    7.8605    0.0000 N   0  0  0  0  0  0  0  0  0  0  0  0
  -12.4520    9.2282    0.0000 C   0  0  0  0  0  0  0  0  0  0  0  0
  -13.9444    9.3786    0.0000 C   0  0  0  0  0  0  0  0  0  0  0  0
  -14.8209    8.1613    0.0000 N   0  0  0  0  0  0  0  0  0  0  0  0
  -14.2050    6.7936    0.0000 C   0  0  0  0  0  0  0  0  0  0  0  0
  -12.7125    6.6432    0.0000 C   0  0  0  0  0  0  0  0  0  0  0  0
  -16.3141    8.3118    0.0000 C   0  0  0  0  0  0  0  0  0  0  0  0
  -17.1888    7.0932    0.0000 C   0  0  0  0  0  0  0  0  0  0  0  0
  -18.6814    7.2412    0.0000 C   0  0  0  0  0  0  0  0  0  0  0  0
  -19.2995    8.6080    0.0000 C   0  0  0  0  0  0  0  0  0  0  0  0
  -18.4250    9.8266    0.0000 C   0  0  0  0  0  0  0  0  0  0  0  0
  -16.9323    9.6786    0.0000 C   0  0  0  0  0  0  0  0  0  0  0  0
   -5.5150    3.2942    0.0000 C   0  0  0  0  0  0  0  0  0  0  0  0
   -6.1284    4.6612    0.0000 C   0  0  0  0  0  0  0  0  0  0  0  0
   -7.6213    4.8147    0.0000 N   0  0  0  0  0  0  0  0  0  0  0  0
   -5.4255    5.6338    0.0000 O   0  0  0  0  0  0  0  0  0  0  0  0
   -5.2594    0.8807    0.0000 C   0  0  0  0  0  0  0  0  0  0  0  0
   -6.2640    1.9946    0.0000 N   0  0  0  0  0  0  0  0  0  0  0  0
   -4.0476    2.9835    0.0000 C   0  0  0  0  0  0  0  0  0  0  0  0
   -3.9086    1.5029    0.0000 N   0  0  0  0  0  0  0  0  0  0  0  0
   -2.6111    0.7486    0.0000 C   0  0  0  0  0  0  0  0  0  0  0  0
   -5.5010   -0.2948    0.0000 C   0  0  0  0  0  0  0  0  0  0  0  0
   -8.2357    6.1841    0.0000 C   0  0  0  0  0  0  0  0  0  0  0  0
   -9.7286    6.3376    0.0000 C   0  0  0  0  0  0  0  0  0  0  0  0
  -10.3430    7.7069    0.0000 C   0  0  0  0  0  0  0  0  0  0  0  0
   -2.6111   -0.7486    0.0000 C   0  0  0  0  0  0  0  0  0  0  0  0
   -1.2964   -1.4973    0.0000 C   0  0  0  0  0  0  0  0  0  0  0  0
   -1.2964    1.4973    0.0000 C   0  0  0  0  0  0  0  0  0  0  0  0
  -18.9195   10.9200    0.0000 Cl  0  0  0  0  0  0  0  0  0  0  0  0
  -10.4315    5.3650    0.0000 O   0  0  0  0  0  0  0  0  0  0  0  0
  -16.2327   10.6535    0.0000 Cl  0  0  0  0  0  0  0  0  0  0  0  0
   -3.1517    3.7818    0.0000 C   0  0  0  0  0  0  0  0  0  0  0  0
    0.0000    0.7486    0.0000 C   0  0  0  0  0  0  0  0  0  0  0  0
    0.0000   -0.7486    0.0000 C   0  0  0  0  0  0  0  0  0  0  0  0
    1.2964   -1.4973    0.0000 O   0  0  0  0  0  0  0  0  0  0  0  0
    2.5929   -0.7486    0.0000 C   0  0  0  0  0  0  0  0  0  0  0  0
    2.5929    0.7486    0.0000 C   0  0  0  0  0  0  0  0  0  0  0  0
    1.2964    1.4973    0.0000 O   0  0  0  0  0  0  0  0  0  0  0  0
   12.5929    4.8484    0.0000 Cl  0  0  0  0  0  0  0  0  0  0  0  0
   10.0929    4.8484    0.0000 Cl  0  0  0  0  0  0  0  0  0  0  0  0
    7.5929    4.8484    0.0000 Cl  0  0  0  0  0  0  0  0  0  0  0  0
    5.0929    4.8484    0.0000 Cl  0  0  0  0  0  0  0  0  0  0  0  0
 18 13  1  0
 13 19  2  0
 19 20  1  0
 20 17  1  0
  3  4  1  0
 20 21  1  0
 10 11  1  0
 17 22  1  0
  4  5  1  0
 15 23  1  0
 11 12  2  0
 23 24  1  0
 12  7  1  0
 24 25  1  0
 25  1  1  0
  4  7  1  0
 21 26  2  0
  5  6  1  0
 26 27  1  0
 27 34  2  0
  1  2  1  0
 33 28  2  0
 28 21  1  0
 13 14  1  0
 11 29  1  0
 24 30  1  0
 14 15  1  0
 12 31  1  0
  7  8  2  0
 19 32  1  0
 33 34  1  0
 14 16  2  0
 17 18  2  0
  1  6  1  0
  8  9  1  0
  2  3  1  0
  9 10  2  0
 33 38  1  0
 34 35  1  0
 35 36  1  0
 36 37  1  0
 37 38  1  0
M  END
>  <ACTIVITY>  (83) 
9.86

$$$$

     RDKit          2D

 41 42  0  0  0  0  0  0  0  0999 V2000
  -11.8359    7.8605    0.0000 N   0  0  0  0  0  0  0  0  0  0  0  0
  -12.4520    9.2282    0.0000 C   0  0  0  0  0  0  0  0  0  0  0  0
  -13.9444    9.3786    0.0000 C   0  0  0  0  0  0  0  0  0  0  0  0
  -14.8209    8.1613    0.0000 N   0  0  0  0  0  0  0  0  0  0  0  0
  -14.2050    6.7936    0.0000 C   0  0  0  0  0  0  0  0  0  0  0  0
  -12.7125    6.6432    0.0000 C   0  0  0  0  0  0  0  0  0  0  0  0
  -16.3141    8.3118    0.0000 C   0  0  0  0  0  0  0  0  0  0  0  0
  -17.1888    7.0932    0.0000 C   0  0  0  0  0  0  0  0  0  0  0  0
  -18.6814    7.2412    0.0000 C   0  0  0  0  0  0  0  0  0  0  0  0
  -19.2995    8.6080    0.0000 C   0  0  0  0  0  0  0  0  0  0  0  0
  -18.4250    9.8266    0.0000 C   0  0  0  0  0  0  0  0  0  0  0  0
  -16.9323    9.6786    0.0000 C   0  0  0  0  0  0  0  0  0  0  0  0
   -5.5150    3.2942    0.0000 C   0  0  0  0  0  0  0  0  0  0  0  0
   -6.1284    4.6612    0.0000 C   0  0  0  0  0  0  0  0  0  0  0  0
   -7.6213    4.8147    0.0000 N   0  0  0  0  0  0  0  0  0  0  0  0
   -5.4255    5.6338    0.0000 O   0  0  0  0  0  0  0  0  0  0  0  0
   -5.2594    0.8807    0.0000 C   0  0  0  0  0  0  0  0  0  0  0  0
   -6.2640    1.9946    0.0000 N   0  0  0  0  0  0  0  0  0  0  0  0
   -4.0476    2.9835    0.0000 C   0  0  0  0  0  0  0  0  0  0  0  0
   -3.9086    1.5029    0.0000 N   0  0  0  0  0  0  0  0  0  0  0  0
   -2.6111    0.7486    0.0000 C   0  0  0  0  0  0  0  0  0  0  0  0
   -5.5010   -0.2948    0.0000 C   0  0  0  0  0  0  0  0  0  0  0  0
   -8.2357    6.1841    0.0000 C   0  0  0  0  0  0  0  0  0  0  0  0
   -9.7286    6.3376    0.0000 C   0  0  0  0  0  0  0  0  0  0  0  0
  -10.3430    7.7069    0.0000 C   0  0  0  0  0  0  0  0  0  0  0  0
   -2.6111   -0.7486    0.0000 C   0  0  0  0  0  0  0  0  0  0  0  0
   -1.2964   -1.4973    0.0000 C   0  0  0  0  0  0  0  0  0  0  0  0
   -1.2964    1.4973    0.0000 C   0  0  0  0  0  0  0  0  0  0  0  0
  -18.9195   10.9200    0.0000 Cl  0  0  0  0  0  0  0  0  0  0  0  0
  -10.4315    5.3650    0.0000 O   0  0  0  0  0  0  0  0  0  0  0  0
  -16.2327   10.6535    0.0000 C   0  0  0  0  0  0  0  0  0  0  0  0
   -3.1517    3.7818    0.0000 C   0  0  0  0  0  0  0  0  0  0  0  0
    0.0000    0.7486    0.0000 C   0  0  0  0  0  0  0  0  0  0  0  0
    0.0000   -0.7486    0.0000 C   0  0  0  0  0  0  0  0  0  0  0  0
    1.2964   -1.4973    0.0000 O   0  0  0  0  0  0  0  0  0  0  0  0
    2.5929   -0.7486    0.0000 C   0  0  0  0  0  0  0  0  0  0  0  0
    2.5929    0.7486    0.0000 C   0  0  0  0  0  0  0  0  0  0  0  0
    1.2964    1.4973    0.0000 O   0  0  0  0  0  0  0  0  0  0  0  0
   10.0929    4.8484    0.0000 Cl  0  0  0  0  0  0  0  0  0  0  0  0
    7.5929    4.8484    0.0000 Cl  0  0  0  0  0  0  0  0  0  0  0  0
    5.0929    4.8484    0.0000 Cl  0  0  0  0  0  0  0  0  0  0  0  0
 18 13  1  0
 13 19  2  0
 19 20  1  0
 20 17  1  0
  3  4  1  0
 20 21  1  0
 10 11  1  0
 17 22  1  0
  4  5  1  0
 15 23  1  0
 11 12  2  0
 23 24  1  0
 12  7  1  0
 24 25  1  0
 25  1  1  0
  4  7  1  0
 21 26  2  0
  5  6  1  0
 26 27  1  0
 27 34  2  0
  1  2  1  0
 33 28  2  0
 28 21  1  0
 13 14  1  0
 11 29  1  0
 24 30  1  0
 14 15  1  0
 12 31  1  0
  7  8  2  0
 19 32  1  0
 33 34  1  0
 14 16  2  0
 17 18  2  0
  1  6  1  0
  8  9  1  0
  2  3  1  0
  9 10  2  0
 33 38  1  0
 34 35  1  0
 35 36  1  0
 36 37  1  0
 37 38  1  0
M  END
>  <ACTIVITY>  (84) 
127

$$$$

     RDKit          2D

 40 42  0  0  0  0  0  0  0  0999 V2000
  -11.8359    7.8605    0.0000 N   0  0  0  0  0  0  0  0  0  0  0  0
  -12.4520    9.2282    0.0000 C   0  0  0  0  0  0  0  0  0  0  0  0
  -13.9444    9.3786    0.0000 C   0  0  0  0  0  0  0  0  0  0  0  0
  -14.8209    8.1613    0.0000 N   0  0  0  0  0  0  0  0  0  0  0  0
  -14.2050    6.7936    0.0000 C   0  0  0  0  0  0  0  0  0  0  0  0
  -12.7125    6.6432    0.0000 C   0  0  0  0  0  0  0  0  0  0  0  0
  -16.3141    8.3118    0.0000 C   0  0  0  0  0  0  0  0  0  0  0  0
  -17.1888    7.0932    0.0000 C   0  0  0  0  0  0  0  0  0  0  0  0
  -18.6814    7.2412    0.0000 C   0  0  0  0  0  0  0  0  0  0  0  0
  -19.2995    8.6080    0.0000 C   0  0  0  0  0  0  0  0  0  0  0  0
  -18.4250    9.8266    0.0000 C   0  0  0  0  0  0  0  0  0  0  0  0
  -16.9323    9.6786    0.0000 C   0  0  0  0  0  0  0  0  0  0  0  0
   -5.5150    3.2942    0.0000 C   0  0  0  0  0  0  0  0  0  0  0  0
   -6.1284    4.6612    0.0000 C   0  0  0  0  0  0  0  0  0  0  0  0
   -7.6213    4.8147    0.0000 N   0  0  0  0  0  0  0  0  0  0  0  0
   -5.4255    5.6338    0.0000 O   0  0  0  0  0  0  0  0  0  0  0  0
   -5.2594    0.8807    0.0000 C   0  0  0  0  0  0  0  0  0  0  0  0
   -6.2640    1.9946    0.0000 N   0  0  0  0  0  0  0  0  0  0  0  0
   -4.0476    2.9835    0.0000 C   0  0  0  0  0  0  0  0  0  0  0  0
   -3.9086    1.5029    0.0000 N   0  0  0  0  0  0  0  0  0  0  0  0
   -2.6111    0.7486    0.0000 C   0  0  0  0  0  0  0  0  0  0  0  0
   -5.5010   -0.2948    0.0000 C   0  0  0  0  0  0  0  0  0  0  0  0
   -8.2357    6.1841    0.0000 C   0  0  0  0  0  0  0  0  0  0  0  0
   -9.7286    6.3376    0.0000 C   0  0  0  0  0  0  0  0  0  0  0  0
  -10.3430    7.7069    0.0000 C   0  0  0  0  0  0  0  0  0  0  0  0
   -2.6111   -0.7486    0.0000 C   0  0  0  0  0  0  0  0  0  0  0  0
   -1.2964   -1.4973    0.0000 C   0  0  0  0  0  0  0  0  0  0  0  0
   -1.2964    1.4973    0.0000 C   0  0  0  0  0  0  0  0  0  0  0  0
  -18.9195   10.9200    0.0000 C   0  0  0  0  0  0  0  0  0  0  0  0
  -10.4315    5.3650    0.0000 O   0  0  0  0  0  0  0  0  0  0  0  0
  -16.2327   10.6535    0.0000 C   0  0  0  0  0  0  0  0  0  0  0  0
   -3.1517    3.7818    0.0000 C   0  0  0  0  0  0  0  0  0  0  0  0
    0.0000    0.7486    0.0000 C   0  0  0  0  0  0  0  0  0  0  0  0
    0.0000   -0.7486    0.0000 C   0  0  0  0  0  0  0  0  0  0  0  0
    1.2964   -1.4973    0.0000 O   0  0  0  0  0  0  0  0  0  0  0  0
    2.5929   -0.7486    0.0000 C   0  0  0  0  0  0  0  0  0  0  0  0
    2.5929    0.7486    0.0000 C   0  0  0  0  0  0  0  0  0  0  0  0
    1.2964    1.4973    0.0000 O   0  0  0  0  0  0  0  0  0  0  0  0
    7.5929    4.8484    0.0000 Cl  0  0  0  0  0  0  0  0  0  0  0  0
    5.0929    4.8484    0.0000 Cl  0  0  0  0  0  0  0  0  0  0  0  0
 18 13  1  0
 13 19  2  0
 19 20  1  0
 20 17  1  0
  3  4  1  0
 20 21  1  0
 10 11  1  0
 17 22  1  0
  4  5  1  0
 15 23  1  0
 11 12  2  0
 23 24  1  0
 12  7  1  0
 24 25  1  0
 25  1  1  0
  4  7  1  0
 21 26  2  0
  5  6  1  0
 26 27  1  0
 27 34  2  0
  1  2  1  0
 33 28  2  0
 28 21  1  0
 13 14  1  0
 11 29  1  0
 24 30  1  0
 14 15  1  0
 12 31  1  0
  7  8  2  0
 19 32  1  0
 33 34  1  0
 14 16  2  0
 17 18  2  0
  1  6  1  0
  8  9  1  0
  2  3  1  0
  9 10  2  0
 33 38  1  0
 34 35  1  0
 35 36  1  0
 36 37  1  0
 37 38  1  0
M  END
>  <ACTIVITY>  (85) 
231.5

$$$$

     RDKit          2D

 43 44  0  0  0  0  0  0  0  0999 V2000
  -11.8359    7.8605    0.0000 N   0  0  0  0  0  0  0  0  0  0  0  0
  -12.4520    9.2282    0.0000 C   0  0  0  0  0  0  0  0  0  0  0  0
  -13.9444    9.3786    0.0000 C   0  0  0  0  0  0  0  0  0  0  0  0
  -14.8209    8.1613    0.0000 N   0  0  0  0  0  0  0  0  0  0  0  0
  -14.2050    6.7936    0.0000 C   0  0  0  0  0  0  0  0  0  0  0  0
  -12.7125    6.6432    0.0000 C   0  0  0  0  0  0  0  0  0  0  0  0
  -16.3141    8.3118    0.0000 C   0  0  0  0  0  0  0  0  0  0  0  0
  -17.1888    7.0932    0.0000 C   0  0  0  0  0  0  0  0  0  0  0  0
  -18.6814    7.2412    0.0000 C   0  0  0  0  0  0  0  0  0  0  0  0
  -19.2995    8.6080    0.0000 C   0  0  0  0  0  0  0  0  0  0  0  0
  -18.4250    9.8266    0.0000 C   0  0  0  0  0  0  0  0  0  0  0  0
  -16.9323    9.6786    0.0000 C   0  0  0  0  0  0  0  0  0  0  0  0
   -5.5150    3.2942    0.0000 C   0  0  0  0  0  0  0  0  0  0  0  0
   -6.1284    4.6612    0.0000 C   0  0  0  0  0  0  0  0  0  0  0  0
   -7.6213    4.8147    0.0000 N   0  0  0  0  0  0  0  0  0  0  0  0
   -5.4255    5.6338    0.0000 O   0  0  0  0  0  0  0  0  0  0  0  0
   -5.2594    0.8807    0.0000 C   0  0  0  0  0  0  0  0  0  0  0  0
   -6.2640    1.9946    0.0000 N   0  0  0  0  0  0  0  0  0  0  0  0
   -4.0476    2.9835    0.0000 C   0  0  0  0  0  0  0  0  0  0  0  0
   -3.9086    1.5029    0.0000 N   0  0  0  0  0  0  0  0  0  0  0  0
   -2.6111    0.7486    0.0000 C   0  0  0  0  0  0  0  0  0  0  0  0
   -5.5615   -0.5868    0.0000 C   0  0  0  0  0  0  0  0  0  0  0  0
   -8.2357    6.1841    0.0000 C   0  0  0  0  0  0  0  0  0  0  0  0
   -9.7286    6.3376    0.0000 C   0  0  0  0  0  0  0  0  0  0  0  0
  -10.3430    7.7069    0.0000 C   0  0  0  0  0  0  0  0  0  0  0  0
   -2.6111   -0.7486    0.0000 C   0  0  0  0  0  0  0  0  0  0  0  0
   -1.2964   -1.4973    0.0000 C   0  0  0  0  0  0  0  0  0  0  0  0
   -1.2964    1.4973    0.0000 C   0  0  0  0  0  0  0  0  0  0  0  0
  -18.9195   10.9200    0.0000 Cl  0  0  0  0  0  0  0  0  0  0  0  0
  -10.4315    5.3650    0.0000 O   0  0  0  0  0  0  0  0  0  0  0  0
  -16.2327   10.6535    0.0000 C   0  0  0  0  0  0  0  0  0  0  0  0
   -3.1517    3.7818    0.0000 C   0  0  0  0  0  0  0  0  0  0  0  0
    0.0000    0.7486    0.0000 C   0  0  0  0  0  0  0  0  0  0  0  0
    0.0000   -0.7486    0.0000 C   0  0  0  0  0  0  0  0  0  0  0  0
    1.2964   -1.4973    0.0000 O   0  0  0  0  0  0  0  0  0  0  0  0
    2.5929   -0.7486    0.0000 C   0  0  0  0  0  0  0  0  0  0  0  0
    2.5929    0.7486    0.0000 C   0  0  0  0  0  0  0  0  0  0  0  0
    1.2964    1.4973    0.0000 O   0  0  0  0  0  0  0  0  0  0  0  0
   -6.9856   -1.0607    0.0000 C   0  0  0  0  0  0  0  0  0  0  0  0
   -7.2275   -2.2360    0.0000 C   0  0  0  0  0  0  0  0  0  0  0  0
   10.0929    4.3317    0.0000 Cl  0  0  0  0  0  0  0  0  0  0  0  0
    7.5929    4.3317    0.0000 Cl  0  0  0  0  0  0  0  0  0  0  0  0
    5.0929    4.3317    0.0000 Cl  0  0  0  0  0  0  0  0  0  0  0  0
 19 20  1  0
 20 17  1  0
  3  4  1  0
 20 21  1  0
 10 11  1  0
 17 22  1  0
  4  5  1  0
 15 23  1  0
 11 12  2  0
 23 24  1  0
 12  7  1  0
 24 25  1  0
 25  1  1  0
  4  7  1  0
 21 26  2  0
  5  6  1  0
 26 27  1  0
 27 34  2  0
  1  2  1  0
 33 28  2  0
 28 21  1  0
 13 14  1  0
 11 29  1  0
 24 30  1  0
 14 15  1  0
 12 31  1  0
  7  8  2  0
 19 32  1  0
 33 34  1  0
 14 16  2  0
 17 18  2  0
  1  6  1  0
  8  9  1  0
  2  3  1  0
  9 10  2  0
 33 38  1  0
 34 35  1  0
 35 36  1  0
 36 37  1  0
 37 38  1  0
 18 13  1  0
 22 39  1  0
 13 19  2  0
 39 40  1  0
M  END
>  <ACTIVITY>  (86) 
237

$$$$

     RDKit          2D

 42 44  0  0  0  0  0  0  0  0999 V2000
  -11.8359    7.8605    0.0000 N   0  0  0  0  0  0  0  0  0  0  0  0
  -12.4520    9.2282    0.0000 C   0  0  0  0  0  0  0  0  0  0  0  0
  -13.9444    9.3786    0.0000 C   0  0  0  0  0  0  0  0  0  0  0  0
  -14.8209    8.1613    0.0000 N   0  0  0  0  0  0  0  0  0  0  0  0
  -14.2050    6.7936    0.0000 C   0  0  0  0  0  0  0  0  0  0  0  0
  -12.7125    6.6432    0.0000 C   0  0  0  0  0  0  0  0  0  0  0  0
  -16.3141    8.3118    0.0000 C   0  0  0  0  0  0  0  0  0  0  0  0
  -17.1888    7.0932    0.0000 C   0  0  0  0  0  0  0  0  0  0  0  0
  -18.6814    7.2412    0.0000 C   0  0  0  0  0  0  0  0  0  0  0  0
  -19.2995    8.6080    0.0000 C   0  0  0  0  0  0  0  0  0  0  0  0
  -18.4250    9.8266    0.0000 C   0  0  0  0  0  0  0  0  0  0  0  0
  -16.9323    9.6786    0.0000 C   0  0  0  0  0  0  0  0  0  0  0  0
   -5.5150    3.2942    0.0000 C   0  0  0  0  0  0  0  0  0  0  0  0
   -6.1284    4.6612    0.0000 C   0  0  0  0  0  0  0  0  0  0  0  0
   -7.6213    4.8147    0.0000 N   0  0  0  0  0  0  0  0  0  0  0  0
   -5.4255    5.6338    0.0000 O   0  0  0  0  0  0  0  0  0  0  0  0
   -5.2594    0.8807    0.0000 C   0  0  0  0  0  0  0  0  0  0  0  0
   -6.2640    1.9946    0.0000 N   0  0  0  0  0  0  0  0  0  0  0  0
   -4.0476    2.9835    0.0000 C   0  0  0  0  0  0  0  0  0  0  0  0
   -3.9086    1.5029    0.0000 N   0  0  0  0  0  0  0  0  0  0  0  0
   -2.6111    0.7486    0.0000 C   0  0  0  0  0  0  0  0  0  0  0  0
   -5.5615   -0.5868    0.0000 C   0  0  0  0  0  0  0  0  0  0  0  0
   -8.2357    6.1841    0.0000 C   0  0  0  0  0  0  0  0  0  0  0  0
   -9.7286    6.3376    0.0000 C   0  0  0  0  0  0  0  0  0  0  0  0
  -10.3430    7.7069    0.0000 C   0  0  0  0  0  0  0  0  0  0  0  0
   -2.6111   -0.7486    0.0000 C   0  0  0  0  0  0  0  0  0  0  0  0
   -1.2964   -1.4973    0.0000 C   0  0  0  0  0  0  0  0  0  0  0  0
   -1.2964    1.4973    0.0000 C   0  0  0  0  0  0  0  0  0  0  0  0
  -18.9195   10.9200    0.0000 C   0  0  0  0  0  0  0  0  0  0  0  0
  -10.4315    5.3650    0.0000 O   0  0  0  0  0  0  0  0  0  0  0  0
  -16.2327   10.6535    0.0000 C   0  0  0  0  0  0  0  0  0  0  0  0
   -3.1517    3.7818    0.0000 C   0  0  0  0  0  0  0  0  0  0  0  0
    0.0000    0.7486    0.0000 C   0  0  0  0  0  0  0  0  0  0  0  0
    0.0000   -0.7486    0.0000 C   0  0  0  0  0  0  0  0  0  0  0  0
    1.2964   -1.4973    0.0000 O   0  0  0  0  0  0  0  0  0  0  0  0
    2.5929   -0.7486    0.0000 C   0  0  0  0  0  0  0  0  0  0  0  0
    2.5929    0.7486    0.0000 C   0  0  0  0  0  0  0  0  0  0  0  0
    1.2964    1.4973    0.0000 O   0  0  0  0  0  0  0  0  0  0  0  0
   -6.9856   -1.0607    0.0000 C   0  0  0  0  0  0  0  0  0  0  0  0
   -7.2275   -2.2360    0.0000 C   0  0  0  0  0  0  0  0  0  0  0  0
    7.5929    4.3317    0.0000 Cl  0  0  0  0  0  0  0  0  0  0  0  0
    5.0929    4.3317    0.0000 Cl  0  0  0  0  0  0  0  0  0  0  0  0
 19 20  1  0
 20 17  1  0
  3  4  1  0
 20 21  1  0
 10 11  1  0
 17 22  1  0
  4  5  1  0
 15 23  1  0
 11 12  2  0
 23 24  1  0
 12  7  1  0
 24 25  1  0
 25  1  1  0
  4  7  1  0
 21 26  2  0
  5  6  1  0
 26 27  1  0
 27 34  2  0
  1  2  1  0
 33 28  2  0
 28 21  1  0
 13 14  1  0
 11 29  1  0
 24 30  1  0
 14 15  1  0
 12 31  1  0
  7  8  2  0
 19 32  1  0
 33 34  1  0
 14 16  2  0
 17 18  2  0
  1  6  1  0
  8  9  1  0
  2  3  1  0
  9 10  2  0
 33 38  1  0
 34 35  1  0
 35 36  1  0
 36 37  1  0
 37 38  1  0
 18 13  1  0
 22 39  1  0
 13 19  2  0
 39 40  1  0
M  END
>  <ACTIVITY>  (87) 
294

$$$$

     RDKit          2D

 36 37  0  0  0  0  0  0  0  0999 V2000
    1.2990   -0.7500    0.0000 N   0  0  0  0  0  0  0  0  0  0  0  0
    0.0000   -1.5000    0.0000 C   0  0  0  0  0  0  0  0  0  0  0  0
   -1.2990   -0.7500    0.0000 C   0  0  0  0  0  0  0  0  0  0  0  0
   -1.2990    0.7500    0.0000 N   0  0  0  0  0  0  0  0  0  0  0  0
    0.0000    1.5000    0.0000 C   0  0  0  0  0  0  0  0  0  0  0  0
    1.2990    0.7500    0.0000 C   0  0  0  0  0  0  0  0  0  0  0  0
   -2.5987    1.5004    0.0000 C   0  0  0  0  0  0  0  0  0  0  0  0
   -3.8967    0.7484    0.0000 C   0  0  0  0  0  0  0  0  0  0  0  0
   -5.1969    1.4963    0.0000 C   0  0  0  0  0  0  0  0  0  0  0  0
   -5.1993    2.9963    0.0000 C   0  0  0  0  0  0  0  0  0  0  0  0
   -3.9015    3.7484    0.0000 C   0  0  0  0  0  0  0  0  0  0  0  0
   -2.6012    3.0004    0.0000 C   0  0  0  0  0  0  0  0  0  0  0  0
    5.1873   -7.5117    0.0000 C   0  0  0  0  0  0  0  0  0  0  0  0
    5.1894   -6.0109    0.0000 C   0  0  0  0  0  0  0  0  0  0  0  0
    3.8912   -5.2578    0.0000 N   0  0  0  0  0  0  0  0  0  0  0  0
    6.2297   -5.4127    0.0000 O   0  0  0  0  0  0  0  0  0  0  0  0
    4.4293   -9.7955    0.0000 C   0  0  0  0  0  0  0  0  0  0  0  0
    3.9707   -8.3673    0.0000 N   0  0  0  0  0  0  0  0  0  0  0  0
    6.3978   -8.3758    0.0000 C   0  0  0  0  0  0  0  0  0  0  0  0
    5.9293   -9.8007    0.0000 N   0  0  0  0  0  0  0  0  0  0  0  0
    6.8072  -11.0179    0.0000 C   0  0  0  0  0  0  0  0  0  0  0  0
    3.7206  -10.7639    0.0000 C   0  0  0  0  0  0  0  0  0  0  0  0
    3.8933   -3.7570    0.0000 C   0  0  0  0  0  0  0  0  0  0  0  0
    2.5951   -3.0039    0.0000 C   0  0  0  0  0  0  0  0  0  0  0  0
    2.5973   -1.5031    0.0000 C   0  0  0  0  0  0  0  0  0  0  0  0
    6.2979  -12.4235    0.0000 C   0  0  0  0  0  0  0  0  0  0  0  0
    7.2644  -13.5706    0.0000 C   0  0  0  0  0  0  0  0  0  0  0  0
    8.2847  -10.7495    0.0000 C   0  0  0  0  0  0  0  0  0  0  0  0
   -3.9034    4.9484    0.0000 C   0  0  0  0  0  0  0  0  0  0  0  0
    1.5548   -3.6021    0.0000 O   0  0  0  0  0  0  0  0  0  0  0  0
   -1.5630    3.6021    0.0000 C   0  0  0  0  0  0  0  0  0  0  0  0
    7.5381   -8.0021    0.0000 C   0  0  0  0  0  0  0  0  0  0  0  0
    9.2512  -11.8966    0.0000 C   0  0  0  0  0  0  0  0  0  0  0  0
    8.7411  -13.3071    0.0000 C   0  0  0  0  0  0  0  0  0  0  0  0
   14.2512   -4.1608    0.0000 Cl  0  0  0  0  0  0  0  0  0  0  0  0
   11.7512   -4.1608    0.0000 Cl  0  0  0  0  0  0  0  0  0  0  0  0
  1  6  1  0
  8  9  2  0
  2  3  1  0
  9 10  1  0
 18 13  1  0
 13 19  2  0
 19 20  1  0
 20 17  1  0
  3  4  1  0
 20 21  1  0
 10 11  2  0
 17 22  1  0
  4  5  1  0
 15 23  1  0
 11 12  1  0
 24 23  1  1
 12  7  2  0
 24 25  1  0
 25  1  1  0
  4  7  1  0
 21 26  2  0
  5  6  1  0
 26 27  1  0
 27 34  2  0
  1  2  1  0
 33 28  2  0
 28 21  1  0
 13 14  1  0
 11 29  1  0
 24 30  1  0
 14 15  1  0
 12 31  1  0
  7  8  1  0
 19 32  1  0
 33 34  1  0
 14 16  2  0
 17 18  2  0
M  END
>  <ACTIVITY>  (88) 
72.5

$$$$

     RDKit          2D

 36 37  0  0  0  0  0  0  0  0999 V2000
    1.2990   -0.7500    0.0000 N   0  0  0  0  0  0  0  0  0  0  0  0
    0.0000   -1.5000    0.0000 C   0  0  0  0  0  0  0  0  0  0  0  0
   -1.2990   -0.7500    0.0000 C   0  0  0  0  0  0  0  0  0  0  0  0
   -1.2990    0.7500    0.0000 N   0  0  0  0  0  0  0  0  0  0  0  0
    0.0000    1.5000    0.0000 C   0  0  0  0  0  0  0  0  0  0  0  0
    1.2990    0.7500    0.0000 C   0  0  0  0  0  0  0  0  0  0  0  0
   -2.5987    1.5004    0.0000 C   0  0  0  0  0  0  0  0  0  0  0  0
   -3.8967    0.7484    0.0000 C   0  0  0  0  0  0  0  0  0  0  0  0
   -5.1969    1.4963    0.0000 C   0  0  0  0  0  0  0  0  0  0  0  0
   -5.1993    2.9963    0.0000 C   0  0  0  0  0  0  0  0  0  0  0  0
   -3.9015    3.7484    0.0000 C   0  0  0  0  0  0  0  0  0  0  0  0
   -2.6012    3.0004    0.0000 C   0  0  0  0  0  0  0  0  0  0  0  0
    5.1873   -7.5117    0.0000 C   0  0  0  0  0  0  0  0  0  0  0  0
    5.1894   -6.0109    0.0000 C   0  0  0  0  0  0  0  0  0  0  0  0
    3.8912   -5.2578    0.0000 N   0  0  0  0  0  0  0  0  0  0  0  0
    6.2297   -5.4127    0.0000 O   0  0  0  0  0  0  0  0  0  0  0  0
    4.4293   -9.7955    0.0000 C   0  0  0  0  0  0  0  0  0  0  0  0
    3.9707   -8.3673    0.0000 N   0  0  0  0  0  0  0  0  0  0  0  0
    6.3978   -8.3758    0.0000 C   0  0  0  0  0  0  0  0  0  0  0  0
    5.9293   -9.8007    0.0000 N   0  0  0  0  0  0  0  0  0  0  0  0
    6.8072  -11.0179    0.0000 C   0  0  0  0  0  0  0  0  0  0  0  0
    3.7206  -10.7639    0.0000 C   0  0  0  0  0  0  0  0  0  0  0  0
    3.8933   -3.7570    0.0000 C   0  0  0  0  0  0  0  0  0  0  0  0
    2.5951   -3.0039    0.0000 C   0  0  0  0  0  0  0  0  0  0  0  0
    2.5973   -1.5031    0.0000 C   0  0  0  0  0  0  0  0  0  0  0  0
    6.2979  -12.4235    0.0000 C   0  0  0  0  0  0  0  0  0  0  0  0
    7.2644  -13.5706    0.0000 C   0  0  0  0  0  0  0  0  0  0  0  0
    8.2847  -10.7495    0.0000 C   0  0  0  0  0  0  0  0  0  0  0  0
   -3.9034    4.9484    0.0000 C   0  0  0  0  0  0  0  0  0  0  0  0
    1.5548   -3.6021    0.0000 O   0  0  0  0  0  0  0  0  0  0  0  0
   -1.5630    3.6021    0.0000 C   0  0  0  0  0  0  0  0  0  0  0  0
    7.5381   -8.0021    0.0000 C   0  0  0  0  0  0  0  0  0  0  0  0
    9.2512  -11.8966    0.0000 C   0  0  0  0  0  0  0  0  0  0  0  0
    8.7411  -13.3071    0.0000 C   0  0  0  0  0  0  0  0  0  0  0  0
   14.2512   -4.1608    0.0000 Cl  0  0  0  0  0  0  0  0  0  0  0  0
   11.7512   -4.1608    0.0000 Cl  0  0  0  0  0  0  0  0  0  0  0  0
  1  6  1  0
  8  9  2  0
  2  3  1  0
  9 10  1  0
 18 13  1  0
 13 19  2  0
 19 20  1  0
 20 17  1  0
  3  4  1  0
 20 21  1  0
 10 11  2  0
 17 22  1  0
  4  5  1  0
 15 23  1  0
 11 12  1  0
 24 23  1  6
 12  7  2  0
 24 25  1  0
 25  1  1  0
  4  7  1  0
 21 26  2  0
  5  6  1  0
 26 27  1  0
 27 34  2  0
  1  2  1  0
 33 28  2  0
 28 21  1  0
 13 14  1  0
 11 29  1  0
 24 30  1  0
 14 15  1  0
 12 31  1  0
  7  8  1  0
 19 32  1  0
 33 34  1  0
 14 16  2  0
 17 18  2  0
M  END
>  <ACTIVITY>  (89) 
646

$$$$

     RDKit          2D

 37 38  0  0  0  0  0  0  0  0999 V2000
    5.1945   -3.0045    0.0000 N   0  0  0  0  0  0  0  0  0  0  0  0
    5.1969   -1.5045    0.0000 C   0  0  0  0  0  0  0  0  0  0  0  0
    3.8991   -0.7525    0.0000 C   0  0  0  0  0  0  0  0  0  0  0  0
    2.5987   -1.5004    0.0000 N   0  0  0  0  0  0  0  0  0  0  0  0
    2.5965   -3.0004    0.0000 C   0  0  0  0  0  0  0  0  0  0  0  0
    3.8943   -3.7525    0.0000 C   0  0  0  0  0  0  0  0  0  0  0  0
    1.2990   -0.7500    0.0000 C   0  0  0  0  0  0  0  0  0  0  0  0
    0.0000   -1.5000    0.0000 C   0  0  0  0  0  0  0  0  0  0  0  0
   -1.2990   -0.7500    0.0000 C   0  0  0  0  0  0  0  0  0  0  0  0
   -1.2990    0.7500    0.0000 C   0  0  0  0  0  0  0  0  0  0  0  0
    0.0000    1.5000    0.0000 C   0  0  0  0  0  0  0  0  0  0  0  0
    1.2990    0.7500    0.0000 C   0  0  0  0  0  0  0  0  0  0  0  0
    9.0720   -9.7724    0.0000 C   0  0  0  0  0  0  0  0  0  0  0  0
    9.0765   -8.2716    0.0000 C   0  0  0  0  0  0  0  0  0  0  0  0
    7.7795   -7.5165    0.0000 N   0  0  0  0  0  0  0  0  0  0  0  0
   10.1178   -7.6751    0.0000 O   0  0  0  0  0  0  0  0  0  0  0  0
    8.3104  -12.0550    0.0000 C   0  0  0  0  0  0  0  0  0  0  0  0
    7.8541  -10.6261    0.0000 N   0  0  0  0  0  0  0  0  0  0  0  0
   10.2812  -10.6384    0.0000 C   0  0  0  0  0  0  0  0  0  0  0  0
    9.8104  -12.0626    0.0000 N   0  0  0  0  0  0  0  0  0  0  0  0
   10.6864  -13.2812    0.0000 C   0  0  0  0  0  0  0  0  0  0  0  0
    7.6002  -13.0223    0.0000 C   0  0  0  0  0  0  0  0  0  0  0  0
    7.7840   -6.0157    0.0000 C   0  0  0  0  0  0  0  0  0  0  0  0
    6.4870   -5.2605    0.0000 C   0  0  0  0  0  0  0  0  0  0  0  0
    6.4915   -3.7597    0.0000 C   0  0  0  0  0  0  0  0  0  0  0  0
   12.1643  -13.0151    0.0000 C   0  0  0  0  0  0  0  0  0  0  0  0
   13.1290  -14.1637    0.0000 C   0  0  0  0  0  0  0  0  0  0  0  0
   10.1748  -14.6860    0.0000 C   0  0  0  0  0  0  0  0  0  0  0  0
    0.0000    2.7000    0.0000 C   0  0  0  0  0  0  0  0  0  0  0  0
    5.4458   -5.8570    0.0000 O   0  0  0  0  0  0  0  0  0  0  0  0
    2.3383    1.3500    0.0000 C   0  0  0  0  0  0  0  0  0  0  0  0
   11.4221  -10.2666    0.0000 C   0  0  0  0  0  0  0  0  0  0  0  0
   11.1395  -15.8346    0.0000 C   0  0  0  0  0  0  0  0  0  0  0  0
   12.6166  -15.5735    0.0000 C   0  0  0  0  0  0  0  0  0  0  0  0
    8.9931  -14.8945    0.0000 F   0  0  0  0  0  0  0  0  0  0  0  0
   18.1290   -6.4169    0.0000 Cl  0  0  0  0  0  0  0  0  0  0  0  0
   15.6290   -6.4169    0.0000 Cl  0  0  0  0  0  0  0  0  0  0  0  0
  8  9  2  0
  2  3  1  0
  9 10  1  0
 18 13  1  0
 13 19  2  0
 19 20  1  0
 20 17  1  0
  3  4  1  0
 20 21  1  0
 10 11  2  0
 17 22  1  0
  4  5  1  0
 15 23  1  0
 11 12  1  0
 24 23  1  1
 12  7  2  0
 24 25  1  0
 25  1  1  0
  4  7  1  0
 21 26  2  0
  5  6  1  0
 26 27  1  0
 27 34  2  0
  1  2  1  0
 33 28  2  0
 28 21  1  0
 13 14  1  0
 11 29  1  0
 24 30  1  0
 14 15  1  0
 12 31  1  0
  7  8  1  0
 19 32  1  0
 33 34  1  0
 14 16  2  0
 17 18  2  0
  1  6  1  0
 28 35  1  0
M  END
>  <ACTIVITY>  (90) 
270

$$$$

     RDKit          2D

 37 38  0  0  0  0  0  0  0  0999 V2000
    5.1945   -3.0045    0.0000 N   0  0  0  0  0  0  0  0  0  0  0  0
    5.1969   -1.5045    0.0000 C   0  0  0  0  0  0  0  0  0  0  0  0
    3.8991   -0.7525    0.0000 C   0  0  0  0  0  0  0  0  0  0  0  0
    2.5987   -1.5004    0.0000 N   0  0  0  0  0  0  0  0  0  0  0  0
    2.5965   -3.0004    0.0000 C   0  0  0  0  0  0  0  0  0  0  0  0
    3.8943   -3.7525    0.0000 C   0  0  0  0  0  0  0  0  0  0  0  0
    1.2990   -0.7500    0.0000 C   0  0  0  0  0  0  0  0  0  0  0  0
    0.0000   -1.5000    0.0000 C   0  0  0  0  0  0  0  0  0  0  0  0
   -1.2990   -0.7500    0.0000 C   0  0  0  0  0  0  0  0  0  0  0  0
   -1.2990    0.7500    0.0000 C   0  0  0  0  0  0  0  0  0  0  0  0
    0.0000    1.5000    0.0000 C   0  0  0  0  0  0  0  0  0  0  0  0
    1.2990    0.7500    0.0000 C   0  0  0  0  0  0  0  0  0  0  0  0
    9.0720   -9.7724    0.0000 C   0  0  0  0  0  0  0  0  0  0  0  0
    9.0765   -8.2716    0.0000 C   0  0  0  0  0  0  0  0  0  0  0  0
    7.7795   -7.5165    0.0000 N   0  0  0  0  0  0  0  0  0  0  0  0
   10.1178   -7.6751    0.0000 O   0  0  0  0  0  0  0  0  0  0  0  0
    8.3104  -12.0550    0.0000 C   0  0  0  0  0  0  0  0  0  0  0  0
    7.8541  -10.6261    0.0000 N   0  0  0  0  0  0  0  0  0  0  0  0
   10.2812  -10.6384    0.0000 C   0  0  0  0  0  0  0  0  0  0  0  0
    9.8104  -12.0626    0.0000 N   0  0  0  0  0  0  0  0  0  0  0  0
   10.6864  -13.2812    0.0000 C   0  0  0  0  0  0  0  0  0  0  0  0
    7.6002  -13.0223    0.0000 C   0  0  0  0  0  0  0  0  0  0  0  0
    7.7840   -6.0157    0.0000 C   0  0  0  0  0  0  0  0  0  0  0  0
    6.4870   -5.2605    0.0000 C   0  0  0  0  0  0  0  0  0  0  0  0
    6.4915   -3.7597    0.0000 C   0  0  0  0  0  0  0  0  0  0  0  0
   12.1643  -13.0151    0.0000 C   0  0  0  0  0  0  0  0  0  0  0  0
   13.1290  -14.1637    0.0000 C   0  0  0  0  0  0  0  0  0  0  0  0
   10.1748  -14.6860    0.0000 C   0  0  0  0  0  0  0  0  0  0  0  0
    0.0000    2.7000    0.0000 C   0  0  0  0  0  0  0  0  0  0  0  0
    5.4458   -5.8570    0.0000 O   0  0  0  0  0  0  0  0  0  0  0  0
    2.3383    1.3500    0.0000 C   0  0  0  0  0  0  0  0  0  0  0  0
   11.4221  -10.2666    0.0000 C   0  0  0  0  0  0  0  0  0  0  0  0
   11.1395  -15.8346    0.0000 C   0  0  0  0  0  0  0  0  0  0  0  0
   12.6166  -15.5735    0.0000 C   0  0  0  0  0  0  0  0  0  0  0  0
    8.9931  -14.8945    0.0000 F   0  0  0  0  0  0  0  0  0  0  0  0
   18.1290   -6.4169    0.0000 Cl  0  0  0  0  0  0  0  0  0  0  0  0
   15.6290   -6.4169    0.0000 Cl  0  0  0  0  0  0  0  0  0  0  0  0
  8  9  2  0
  2  3  1  0
  9 10  1  0
 18 13  1  0
 13 19  2  0
 19 20  1  0
 20 17  1  0
  3  4  1  0
 20 21  1  0
 10 11  2  0
 17 22  1  0
  4  5  1  0
 15 23  1  0
 11 12  1  0
 24 23  1  6
 12  7  2  0
 24 25  1  0
 25  1  1  0
  4  7  1  0
 21 26  2  0
  5  6  1  0
 26 27  1  0
 27 34  2  0
  1  2  1  0
 33 28  2  0
 28 21  1  0
 13 14  1  0
 11 29  1  0
 24 30  1  0
 14 15  1  0
 12 31  1  0
  7  8  1  0
 19 32  1  0
 33 34  1  0
 14 16  2  0
 17 18  2  0
  1  6  1  0
 28 35  1  0
M  END
>  <ACTIVITY>  (91) 
244

$$$$

     RDKit          2D

 43 44  0  0  0  0  0  0  0  0999 V2000
    1.2990   -0.7500    0.0000 N   0  0  0  0  0  0  0  0  0  0  0  0
    1.2990    0.7500    0.0000 C   0  0  0  0  0  0  0  0  0  0  0  0
    0.0000    1.5000    0.0000 C   0  0  0  0  0  0  0  0  0  0  0  0
   -1.2990    0.7500    0.0000 N   0  0  0  0  0  0  0  0  0  0  0  0
   -1.2990   -0.7500    0.0000 C   0  0  0  0  0  0  0  0  0  0  0  0
    0.0000   -1.5000    0.0000 C   0  0  0  0  0  0  0  0  0  0  0  0
   -2.5987    1.5004    0.0000 C   0  0  0  0  0  0  0  0  0  0  0  0
   -3.8967    0.7484    0.0000 C   0  0  0  0  0  0  0  0  0  0  0  0
   -5.1969    1.4963    0.0000 C   0  0  0  0  0  0  0  0  0  0  0  0
   -5.1993    2.9963    0.0000 C   0  0  0  0  0  0  0  0  0  0  0  0
   -3.9015    3.7484    0.0000 C   0  0  0  0  0  0  0  0  0  0  0  0
   -2.6012    3.0004    0.0000 C   0  0  0  0  0  0  0  0  0  0  0  0
    5.1873   -7.5117    0.0000 C   0  0  0  0  0  0  0  0  0  0  0  0
    5.1894   -6.0109    0.0000 C   0  0  0  0  0  0  0  0  0  0  0  0
    3.8912   -5.2578    0.0000 N   0  0  0  0  0  0  0  0  0  0  0  0
    6.2297   -5.4127    0.0000 O   0  0  0  0  0  0  0  0  0  0  0  0
    4.4293   -9.7955    0.0000 C   0  0  0  0  0  0  0  0  0  0  0  0
    3.9707   -8.3673    0.0000 N   0  0  0  0  0  0  0  0  0  0  0  0
    6.3978   -8.3758    0.0000 C   0  0  0  0  0  0  0  0  0  0  0  0
    5.9293   -9.8007    0.0000 N   0  0  0  0  0  0  0  0  0  0  0  0
    6.8072  -11.0179    0.0000 C   0  0  0  0  0  0  0  0  0  0  0  0
    3.5430  -11.0066    0.0000 C   0  0  0  0  0  0  0  0  0  0  0  0
    3.8933   -3.7570    0.0000 C   0  0  0  0  0  0  0  0  0  0  0  0
    2.5951   -3.0039    0.0000 C   0  0  0  0  0  0  0  0  0  0  0  0
    2.5973   -1.5031    0.0000 C   0  0  0  0  0  0  0  0  0  0  0  0
    6.2979  -12.4235    0.0000 C   0  0  0  0  0  0  0  0  0  0  0  0
    7.2644  -13.5706    0.0000 C   0  0  0  0  0  0  0  0  0  0  0  0
    8.2847  -10.7495    0.0000 C   0  0  0  0  0  0  0  0  0  0  0  0
   -3.9034    4.9484    0.0000 Cl  0  0  0  0  0  0  0  0  0  0  0  0
    1.5548   -3.6021    0.0000 O   0  0  0  0  0  0  0  0  0  0  0  0
   -1.5630    3.6021    0.0000 C   0  0  0  0  0  0  0  0  0  0  0  0
    7.5381   -8.0021    0.0000 C   0  0  0  0  0  0  0  0  0  0  0  0
    9.2512  -11.8966    0.0000 C   0  0  0  0  0  0  0  0  0  0  0  0
    8.7411  -13.3071    0.0000 C   0  0  0  0  0  0  0  0  0  0  0  0
    9.5143  -14.2248    0.0000 F   0  0  0  0  0  0  0  0  0  0  0  0
    2.0488  -10.9565    0.0000 C   0  0  0  0  0  0  0  0  0  0  0  0
    1.2565  -12.2302    0.0000 C   0  0  0  0  0  0  0  0  0  0  0  0
    1.9634  -13.5532    0.0000 C   0  0  0  0  0  0  0  0  0  0  0  0
    3.4626  -13.6025    0.0000 C   0  0  0  0  0  0  0  0  0  0  0  0
    4.2549  -12.3288    0.0000 C   0  0  0  0  0  0  0  0  0  0  0  0
   17.2081   -4.6029    0.0000 Cl  0  0  0  0  0  0  0  0  0  0  0  0
   14.7081   -4.6029    0.0000 Cl  0  0  0  0  0  0  0  0  0  0  0  0
   12.2081   -4.6029    0.0000 Cl  0  0  0  0  0  0  0  0  0  0  0  0
 19 20  1  0
 20 17  1  0
  3  4  1  0
 20 21  1  0
 10 11  1  0
 17 22  1  0
  4  5  1  0
 15 23  1  0
 11 12  2  0
 24 23  1  1
 12  7  1  0
 24 25  1  0
 25  1  1  0
  4  7  1  0
 21 26  2  0
  5  6  1  0
 26 27  1  0
 27 34  2  0
  1  2  1  0
 33 28  2  0
 28 21  1  0
 13 14  1  0
 11 29  1  0
 24 30  1  0
 14 15  1  0
 12 31  1  0
  7  8  2  0
 19 32  1  0
 33 34  1  0
 14 16  2  0
 17 18  2  0
  1  6  1  0
 34 35  1  0
  8  9  1  0
 22 36  2  0
  2  3  1  0
 36 37  1  0
  9 10  2  0
 37 38  2  0
 18 13  1  0
 38 39  1  0
 13 19  2  0
 39 40  2  0
 40 22  1  0
M  END
>  <ACTIVITY>  (92) 
95

$$$$

     RDKit          2D

 43 44  0  0  0  0  0  0  0  0999 V2000
    1.2990   -0.7500    0.0000 N   0  0  0  0  0  0  0  0  0  0  0  0
    1.2990    0.7500    0.0000 C   0  0  0  0  0  0  0  0  0  0  0  0
    0.0000    1.5000    0.0000 C   0  0  0  0  0  0  0  0  0  0  0  0
   -1.2990    0.7500    0.0000 N   0  0  0  0  0  0  0  0  0  0  0  0
   -1.2990   -0.7500    0.0000 C   0  0  0  0  0  0  0  0  0  0  0  0
    0.0000   -1.5000    0.0000 C   0  0  0  0  0  0  0  0  0  0  0  0
   -2.5987    1.5004    0.0000 C   0  0  0  0  0  0  0  0  0  0  0  0
   -3.8967    0.7484    0.0000 C   0  0  0  0  0  0  0  0  0  0  0  0
   -5.1969    1.4963    0.0000 C   0  0  0  0  0  0  0  0  0  0  0  0
   -5.1993    2.9963    0.0000 C   0  0  0  0  0  0  0  0  0  0  0  0
   -3.9015    3.7484    0.0000 C   0  0  0  0  0  0  0  0  0  0  0  0
   -2.6012    3.0004    0.0000 C   0  0  0  0  0  0  0  0  0  0  0  0
    5.1873   -7.5117    0.0000 C   0  0  0  0  0  0  0  0  0  0  0  0
    5.1894   -6.0109    0.0000 C   0  0  0  0  0  0  0  0  0  0  0  0
    3.8912   -5.2578    0.0000 N   0  0  0  0  0  0  0  0  0  0  0  0
    6.2297   -5.4127    0.0000 O   0  0  0  0  0  0  0  0  0  0  0  0
    4.4293   -9.7955    0.0000 C   0  0  0  0  0  0  0  0  0  0  0  0
    3.9707   -8.3673    0.0000 N   0  0  0  0  0  0  0  0  0  0  0  0
    6.3978   -8.3758    0.0000 C   0  0  0  0  0  0  0  0  0  0  0  0
    5.9293   -9.8007    0.0000 N   0  0  0  0  0  0  0  0  0  0  0  0
    6.8072  -11.0179    0.0000 C   0  0  0  0  0  0  0  0  0  0  0  0
    3.5430  -11.0066    0.0000 C   0  0  0  0  0  0  0  0  0  0  0  0
    3.8933   -3.7570    0.0000 C   0  0  0  0  0  0  0  0  0  0  0  0
    2.5951   -3.0039    0.0000 C   0  0  0  0  0  0  0  0  0  0  0  0
    2.5973   -1.5031    0.0000 C   0  0  0  0  0  0  0  0  0  0  0  0
    6.2979  -12.4235    0.0000 C   0  0  0  0  0  0  0  0  0  0  0  0
    7.2644  -13.5706    0.0000 C   0  0  0  0  0  0  0  0  0  0  0  0
    8.2847  -10.7495    0.0000 C   0  0  0  0  0  0  0  0  0  0  0  0
   -3.9034    4.9484    0.0000 Cl  0  0  0  0  0  0  0  0  0  0  0  0
    1.5548   -3.6021    0.0000 O   0  0  0  0  0  0  0  0  0  0  0  0
   -1.5630    3.6021    0.0000 C   0  0  0  0  0  0  0  0  0  0  0  0
    7.5381   -8.0021    0.0000 C   0  0  0  0  0  0  0  0  0  0  0  0
    9.2512  -11.8966    0.0000 C   0  0  0  0  0  0  0  0  0  0  0  0
    8.7411  -13.3071    0.0000 C   0  0  0  0  0  0  0  0  0  0  0  0
    9.5143  -14.2248    0.0000 F   0  0  0  0  0  0  0  0  0  0  0  0
    2.0488  -10.9565    0.0000 C   0  0  0  0  0  0  0  0  0  0  0  0
    1.2565  -12.2302    0.0000 C   0  0  0  0  0  0  0  0  0  0  0  0
    1.9634  -13.5532    0.0000 C   0  0  0  0  0  0  0  0  0  0  0  0
    3.4626  -13.6025    0.0000 C   0  0  0  0  0  0  0  0  0  0  0  0
    4.2549  -12.3288    0.0000 C   0  0  0  0  0  0  0  0  0  0  0  0
   17.2081   -4.6029    0.0000 Cl  0  0  0  0  0  0  0  0  0  0  0  0
   14.7081   -4.6029    0.0000 Cl  0  0  0  0  0  0  0  0  0  0  0  0
   12.2081   -4.6029    0.0000 Cl  0  0  0  0  0  0  0  0  0  0  0  0
 19 20  1  0
 20 17  1  0
  3  4  1  0
 20 21  1  0
 10 11  1  0
 17 22  1  0
  4  5  1  0
 15 23  1  0
 11 12  2  0
 24 23  1  6
 12  7  1  0
 24 25  1  0
 25  1  1  0
  4  7  1  0
 21 26  2  0
  5  6  1  0
 26 27  1  0
 27 34  2  0
  1  2  1  0
 33 28  2  0
 28 21  1  0
 13 14  1  0
 11 29  1  0
 24 30  1  0
 14 15  1  0
 12 31  1  0
  7  8  2  0
 19 32  1  0
 33 34  1  0
 14 16  2  0
 17 18  2  0
  1  6  1  0
 34 35  1  0
  8  9  1  0
 22 36  2  0
  2  3  1  0
 36 37  1  0
  9 10  2  0
 37 38  2  0
 18 13  1  0
 38 39  1  0
 13 19  2  0
 39 40  2  0
 40 22  1  0
M  END
>  <ACTIVITY>  (93) 
20.1

$$$$

     RDKit          2D

 36 35  0  0  0  0  0  0  0  0999 V2000
    5.1894   -6.0109    0.0000 C   0  0  0  0  0  0  0  0  0  0  0  0
    3.8912   -5.2578    0.0000 C   0  0  0  0  0  0  0  0  0  0  0  0
    3.8933   -3.7570    0.0000 N   0  0  0  0  0  0  0  0  0  0  0  0
    2.8509   -5.8560    0.0000 O   0  0  0  0  0  0  0  0  0  0  0  0
    7.5445   -6.5046    0.0000 C   0  0  0  0  0  0  0  0  0  0  0  0
    6.5408   -5.3899    0.0000 N   0  0  0  0  0  0  0  0  0  0  0  0
    5.3273   -7.4917    0.0000 C   0  0  0  0  0  0  0  0  0  0  0  0
    6.7945   -7.8036    0.0000 N   0  0  0  0  0  0  0  0  0  0  0  0
    7.4049   -9.1746    0.0000 C   0  0  0  0  0  0  0  0  0  0  0  0
    8.8759   -9.4415    0.0000 C   0  0  0  0  0  0  0  0  0  0  0  0
    9.3812  -10.8538    0.0000 C   0  0  0  0  0  0  0  0  0  0  0  0
    8.4107  -11.9975    0.0000 C   0  0  0  0  0  0  0  0  0  0  0  0
    6.9349  -11.7289    0.0000 C   0  0  0  0  0  0  0  0  0  0  0  0
    6.4297  -10.3166    0.0000 C   0  0  0  0  0  0  0  0  0  0  0  0
    4.4307   -8.2894    0.0000 C   0  0  0  0  0  0  0  0  0  0  0  0
    8.7379   -6.3792    0.0000 C   0  0  0  0  0  0  0  0  0  0  0  0
    2.5951   -3.0039    0.0000 C   0  0  0  0  0  0  0  0  0  0  0  0
    2.5973   -1.5031    0.0000 C   0  0  0  0  0  0  0  0  0  0  0  0
    1.2990   -0.7500    0.0000 N   0  0  0  0  0  0  0  0  0  0  0  0
    1.2990    0.7500    0.0000 C   0  0  0  0  0  0  0  0  0  0  0  0
    0.0000    1.5000    0.0000 C   0  0  0  0  0  0  0  0  0  0  0  0
   -1.2990    0.7500    0.0000 N   0  0  0  0  0  0  0  0  0  0  0  0
   -1.2990   -0.7500    0.0000 C   0  0  0  0  0  0  0  0  0  0  0  0
    0.0000   -1.5000    0.0000 C   0  0  0  0  0  0  0  0  0  0  0  0
   -2.5987    1.5004    0.0000 C   0  0  0  0  0  0  0  0  0  0  0  0
   -2.6012    3.0004    0.0000 C   0  0  0  0  0  0  0  0  0  0  0  0
   -3.9015    3.7484    0.0000 C   0  0  0  0  0  0  0  0  0  0  0  0
   -5.1993    2.9963    0.0000 C   0  0  0  0  0  0  0  0  0  0  0  0
   -5.1969    1.4963    0.0000 C   0  0  0  0  0  0  0  0  0  0  0  0
   -3.8967    0.7484    0.0000 C   0  0  0  0  0  0  0  0  0  0  0  0
   -1.5630    3.6021    0.0000 Cl  0  0  0  0  0  0  0  0  0  0  0  0
   -3.9034    4.9484    0.0000 Cl  0  0  0  0  0  0  0  0  0  0  0  0
   19.3812   -3.3742    0.0000 Cl  0  0  0  0  0  0  0  0  0  0  0  0
   16.8812   -3.3742    0.0000 Cl  0  0  0  0  0  0  0  0  0  0  0  0
   14.3812   -3.3742    0.0000 Cl  0  0  0  0  0  0  0  0  0  0  0  0
   11.8812   -3.3742    0.0000 Cl  0  0  0  0  0  0  0  0  0  0  0  0
  7  8  1  0
  5 16  1  0
  8  5  1  0
  3 17  1  0
  5  6  2  0
 17 18  1  0
 18 19  1  0
 19 20  1  0
  9 10  2  0
  2  3  1  0
 10 11  1  0
  1  2  1  0
 11 12  2  0
 19 24  1  0
 20 21  1  0
 21 22  1  0
 22 23  1  0
 23 24  1  0
  2  4  2  0
 12 13  1  0
 25 26  2  0
  6  1  1  0
 26 27  1  0
 13 14  2  0
 27 28  2  0
 14  9  1  0
 28 29  1  0
  8  9  1  0
 29 30  2  0
 30 25  1  0
 22 25  1  0
  1  7  2  0
 26 31  1  0
  7 15  1  0
 27 32  1  0
M  END
>  <ACTIVITY>  (94) 
31

$$$$

     RDKit          2D

 37 36  0  0  0  0  0  0  0  0999 V2000
    5.1894   -6.0109    0.0000 C   0  0  0  0  0  0  0  0  0  0  0  0
    3.8912   -5.2578    0.0000 C   0  0  0  0  0  0  0  0  0  0  0  0
    3.8933   -3.7570    0.0000 N   0  0  0  0  0  0  0  0  0  0  0  0
    2.8509   -5.8560    0.0000 O   0  0  0  0  0  0  0  0  0  0  0  0
    7.5445   -6.5046    0.0000 C   0  0  0  0  0  0  0  0  0  0  0  0
    6.5408   -5.3899    0.0000 N   0  0  0  0  0  0  0  0  0  0  0  0
    5.3273   -7.4917    0.0000 C   0  0  0  0  0  0  0  0  0  0  0  0
    6.7945   -7.8036    0.0000 N   0  0  0  0  0  0  0  0  0  0  0  0
    7.4049   -9.1746    0.0000 C   0  0  0  0  0  0  0  0  0  0  0  0
    8.8759   -9.4415    0.0000 C   0  0  0  0  0  0  0  0  0  0  0  0
    9.3812  -10.8538    0.0000 C   0  0  0  0  0  0  0  0  0  0  0  0
    8.4107  -11.9975    0.0000 C   0  0  0  0  0  0  0  0  0  0  0  0
    6.9349  -11.7289    0.0000 C   0  0  0  0  0  0  0  0  0  0  0  0
    6.4297  -10.3166    0.0000 C   0  0  0  0  0  0  0  0  0  0  0  0
    4.4307   -8.2894    0.0000 C   0  0  0  0  0  0  0  0  0  0  0  0
    9.0342   -6.3449    0.0000 C   0  0  0  0  0  0  0  0  0  0  0  0
    2.5951   -3.0039    0.0000 C   0  0  0  0  0  0  0  0  0  0  0  0
    2.5973   -1.5031    0.0000 C   0  0  0  0  0  0  0  0  0  0  0  0
    1.2990   -0.7500    0.0000 N   0  0  0  0  0  0  0  0  0  0  0  0
    1.2990    0.7500    0.0000 C   0  0  0  0  0  0  0  0  0  0  0  0
    0.0000    1.5000    0.0000 C   0  0  0  0  0  0  0  0  0  0  0  0
   -1.2990    0.7500    0.0000 N   0  0  0  0  0  0  0  0  0  0  0  0
   -1.2990   -0.7500    0.0000 C   0  0  0  0  0  0  0  0  0  0  0  0
    0.0000   -1.5000    0.0000 C   0  0  0  0  0  0  0  0  0  0  0  0
   -2.5987    1.5004    0.0000 C   0  0  0  0  0  0  0  0  0  0  0  0
   -2.6012    3.0004    0.0000 C   0  0  0  0  0  0  0  0  0  0  0  0
   -3.9015    3.7484    0.0000 C   0  0  0  0  0  0  0  0  0  0  0  0
   -5.1993    2.9963    0.0000 C   0  0  0  0  0  0  0  0  0  0  0  0
   -5.1969    1.4963    0.0000 C   0  0  0  0  0  0  0  0  0  0  0  0
   -3.8967    0.7484    0.0000 C   0  0  0  0  0  0  0  0  0  0  0  0
   -1.5630    3.6021    0.0000 Cl  0  0  0  0  0  0  0  0  0  0  0  0
   -3.9034    4.9484    0.0000 Cl  0  0  0  0  0  0  0  0  0  0  0  0
    9.5207   -5.2479    0.0000 C   0  0  0  0  0  0  0  0  0  0  0  0
   19.6427   -3.3742    0.0000 Cl  0  0  0  0  0  0  0  0  0  0  0  0
   17.1427   -3.3742    0.0000 Cl  0  0  0  0  0  0  0  0  0  0  0  0
   14.6427   -3.3742    0.0000 Cl  0  0  0  0  0  0  0  0  0  0  0  0
   12.1427   -3.3742    0.0000 Cl  0  0  0  0  0  0  0  0  0  0  0  0
  5 16  1  0
  8  5  1  0
  3 17  1  0
  5  6  2  0
 17 18  1  0
 18 19  1  0
 19 20  1  0
  9 10  2  0
  2  3  1  0
 10 11  1  0
  1  2  1  0
 11 12  2  0
 19 24  1  0
 20 21  1  0
 21 22  1  0
 22 23  1  0
 23 24  1  0
  2  4  2  0
 12 13  1  0
 25 26  2  0
  6  1  1  0
 26 27  1  0
 13 14  2  0
 27 28  2  0
 14  9  1  0
 28 29  1  0
  8  9  1  0
 29 30  2  0
 30 25  1  0
 22 25  1  0
  1  7  2  0
 26 31  1  0
  7 15  1  0
 27 32  1  0
  7  8  1  0
 16 33  1  0
M  END
>  <ACTIVITY>  (95) 
27

$$$$

     RDKit          2D

 38 37  0  0  0  0  0  0  0  0999 V2000
    5.1894   -6.0109    0.0000 C   0  0  0  0  0  0  0  0  0  0  0  0
    3.8912   -5.2578    0.0000 C   0  0  0  0  0  0  0  0  0  0  0  0
    3.8933   -3.7570    0.0000 N   0  0  0  0  0  0  0  0  0  0  0  0
    2.8509   -5.8560    0.0000 O   0  0  0  0  0  0  0  0  0  0  0  0
    7.5445   -6.5046    0.0000 C   0  0  0  0  0  0  0  0  0  0  0  0
    6.5408   -5.3899    0.0000 N   0  0  0  0  0  0  0  0  0  0  0  0
    5.3273   -7.4917    0.0000 C   0  0  0  0  0  0  0  0  0  0  0  0
    6.7945   -7.8036    0.0000 N   0  0  0  0  0  0  0  0  0  0  0  0
    7.4049   -9.1746    0.0000 C   0  0  0  0  0  0  0  0  0  0  0  0
    8.8759   -9.4415    0.0000 C   0  0  0  0  0  0  0  0  0  0  0  0
    9.3812  -10.8538    0.0000 C   0  0  0  0  0  0  0  0  0  0  0  0
    8.4107  -11.9975    0.0000 C   0  0  0  0  0  0  0  0  0  0  0  0
    6.9349  -11.7289    0.0000 C   0  0  0  0  0  0  0  0  0  0  0  0
    6.4297  -10.3166    0.0000 C   0  0  0  0  0  0  0  0  0  0  0  0
    4.4307   -8.2894    0.0000 C   0  0  0  0  0  0  0  0  0  0  0  0
    9.0342   -6.3449    0.0000 C   0  0  0  0  0  0  0  0  0  0  0  0
    2.5951   -3.0039    0.0000 C   0  0  0  0  0  0  0  0  0  0  0  0
    2.5973   -1.5031    0.0000 C   0  0  0  0  0  0  0  0  0  0  0  0
    1.2990   -0.7500    0.0000 N   0  0  0  0  0  0  0  0  0  0  0  0
    1.2990    0.7500    0.0000 C   0  0  0  0  0  0  0  0  0  0  0  0
    0.0000    1.5000    0.0000 C   0  0  0  0  0  0  0  0  0  0  0  0
   -1.2990    0.7500    0.0000 N   0  0  0  0  0  0  0  0  0  0  0  0
   -1.2990   -0.7500    0.0000 C   0  0  0  0  0  0  0  0  0  0  0  0
    0.0000   -1.5000    0.0000 C   0  0  0  0  0  0  0  0  0  0  0  0
   -2.5987    1.5004    0.0000 C   0  0  0  0  0  0  0  0  0  0  0  0
   -2.6012    3.0004    0.0000 C   0  0  0  0  0  0  0  0  0  0  0  0
   -3.9015    3.7484    0.0000 C   0  0  0  0  0  0  0  0  0  0  0  0
   -5.1993    2.9963    0.0000 C   0  0  0  0  0  0  0  0  0  0  0  0
   -5.1969    1.4963    0.0000 C   0  0  0  0  0  0  0  0  0  0  0  0
   -3.8967    0.7484    0.0000 C   0  0  0  0  0  0  0  0  0  0  0  0
   -1.5630    3.6021    0.0000 Cl  0  0  0  0  0  0  0  0  0  0  0  0
   -3.9034    4.9484    0.0000 Cl  0  0  0  0  0  0  0  0  0  0  0  0
    9.6427   -4.9729    0.0000 C   0  0  0  0  0  0  0  0  0  0  0  0
   10.8359   -4.8450    0.0000 C   0  0  0  0  0  0  0  0  0  0  0  0
   21.1350   -3.3742    0.0000 Cl  0  0  0  0  0  0  0  0  0  0  0  0
   18.6350   -3.3742    0.0000 Cl  0  0  0  0  0  0  0  0  0  0  0  0
   16.1350   -3.3742    0.0000 Cl  0  0  0  0  0  0  0  0  0  0  0  0
   13.6350   -3.3742    0.0000 Cl  0  0  0  0  0  0  0  0  0  0  0  0
  8  5  1  0
  3 17  1  0
  5  6  2  0
 17 18  1  0
 18 19  1  0
 19 20  1  0
  9 10  2  0
  2  3  1  0
 10 11  1  0
  1  2  1  0
 11 12  2  0
 19 24  1  0
 20 21  1  0
 21 22  1  0
 22 23  1  0
 23 24  1  0
  2  4  2  0
 12 13  1  0
 25 26  2  0
  6  1  1  0
 26 27  1  0
 13 14  2  0
 27 28  2  0
 14  9  1  0
 28 29  1  0
  8  9  1  0
 29 30  2  0
 30 25  1  0
 22 25  1  0
  1  7  2  0
 26 31  1  0
  7 15  1  0
 27 32  1  0
  7  8  1  0
 16 33  1  0
  5 16  1  0
 33 34  1  0
M  END
>  <ACTIVITY>  (96) 
39

$$$$

     RDKit          2D

 37 36  0  0  0  0  0  0  0  0999 V2000
    1.2990   -0.7500    0.0000 N   0  0  0  0  0  0  0  0  0  0  0  0
    0.0000   -1.5000    0.0000 C   0  0  0  0  0  0  0  0  0  0  0  0
   -1.2990   -0.7500    0.0000 C   0  0  0  0  0  0  0  0  0  0  0  0
   -1.2990    0.7500    0.0000 N   0  0  0  0  0  0  0  0  0  0  0  0
    0.0000    1.5000    0.0000 C   0  0  0  0  0  0  0  0  0  0  0  0
    1.2990    0.7500    0.0000 C   0  0  0  0  0  0  0  0  0  0  0  0
   -2.5987    1.5004    0.0000 C   0  0  0  0  0  0  0  0  0  0  0  0
   -2.6012    3.0004    0.0000 C   0  0  0  0  0  0  0  0  0  0  0  0
   -3.9014    3.7484    0.0000 C   0  0  0  0  0  0  0  0  0  0  0  0
   -5.1993    2.9963    0.0000 C   0  0  0  0  0  0  0  0  0  0  0  0
   -5.1969    1.4963    0.0000 C   0  0  0  0  0  0  0  0  0  0  0  0
   -3.8967    0.7484    0.0000 C   0  0  0  0  0  0  0  0  0  0  0  0
   -1.5630    3.6021    0.0000 Cl  0  0  0  0  0  0  0  0  0  0  0  0
   -3.9034    4.9484    0.0000 Cl  0  0  0  0  0  0  0  0  0  0  0  0
    5.1873   -7.5117    0.0000 C   0  0  0  0  0  0  0  0  0  0  0  0
    5.1894   -6.0109    0.0000 C   0  0  0  0  0  0  0  0  0  0  0  0
    3.8912   -5.2578    0.0000 N   0  0  0  0  0  0  0  0  0  0  0  0
    6.2297   -5.4127    0.0000 O   0  0  0  0  0  0  0  0  0  0  0  0
    4.4293   -9.7955    0.0000 C   0  0  0  0  0  0  0  0  0  0  0  0
    3.9707   -8.3673    0.0000 N   0  0  0  0  0  0  0  0  0  0  0  0
    6.3978   -8.3758    0.0000 C   0  0  0  0  0  0  0  0  0  0  0  0
    5.9293   -9.8007    0.0000 N   0  0  0  0  0  0  0  0  0  0  0  0
    6.8072  -11.0179    0.0000 C   0  0  0  0  0  0  0  0  0  0  0  0
    6.2979  -12.4235    0.0000 C   0  0  0  0  0  0  0  0  0  0  0  0
    7.2644  -13.5706    0.0000 C   0  0  0  0  0  0  0  0  0  0  0  0
    8.7411  -13.3071    0.0000 C   0  0  0  0  0  0  0  0  0  0  0  0
    9.2512  -11.8966    0.0000 C   0  0  0  0  0  0  0  0  0  0  0  0
    8.2847  -10.7495    0.0000 C   0  0  0  0  0  0  0  0  0  0  0  0
    7.5381   -8.0021    0.0000 C   0  0  0  0  0  0  0  0  0  0  0  0
    3.7206  -10.7639    0.0000 C   0  0  0  0  0  0  0  0  0  0  0  0
    3.8933   -3.7570    0.0000 C   0  0  0  0  0  0  0  0  0  0  0  0
    2.5951   -3.0039    0.0000 C   0  0  0  0  0  0  0  0  0  0  0  0
    2.5973   -1.5031    0.0000 C   0  0  0  0  0  0  0  0  0  0  0  0
   19.2512   -4.1608    0.0000 Cl  0  0  0  0  0  0  0  0  0  0  0  0
   16.7512   -4.1608    0.0000 Cl  0  0  0  0  0  0  0  0  0  0  0  0
   14.2512   -4.1608    0.0000 Cl  0  0  0  0  0  0  0  0  0  0  0  0
   11.7512   -4.1608    0.0000 Cl  0  0  0  0  0  0  0  0  0  0  0  0
  1  6  1  0
 16 17  1  0
  8  9  2  0
 16 18  2  0
 19 20  2  0
  2  3  1  0
  9 10  1  0
  3  4  1  0
 10 11  2  0
 20 15  1  0
 15 21  2  0
 21 22  1  0
 22 19  1  0
  4  5  1  0
 11 12  1  0
 23 24  2  0
 12  7  2  0
 24 25  1  0
  4  7  1  0
 25 26  2  0
  5  6  1  0
 26 27  1  0
  8 13  1  0
 27 28  2  0
 28 23  1  0
 22 23  1  0
  1  2  1  0
 21 29  1  0
  9 14  1  0
 19 30  1  0
 17 31  1  0
  7  8  1  0
 31 32  1  0
 15 16  1  0
 32 33  1  0
 33  1  1  0
M  END
>  <ACTIVITY>  (97) 
18.6

$$$$

     RDKit          2D

 38 37  0  0  0  0  0  0  0  0999 V2000
    5.1945   -3.0045    0.0000 N   0  0  0  0  0  0  0  0  0  0  0  0
    5.1969   -1.5045    0.0000 C   0  0  0  0  0  0  0  0  0  0  0  0
    3.8991   -0.7525    0.0000 C   0  0  0  0  0  0  0  0  0  0  0  0
    2.5987   -1.5004    0.0000 N   0  0  0  0  0  0  0  0  0  0  0  0
    2.5965   -3.0004    0.0000 C   0  0  0  0  0  0  0  0  0  0  0  0
    3.8943   -3.7525    0.0000 C   0  0  0  0  0  0  0  0  0  0  0  0
    1.2990   -0.7500    0.0000 C   0  0  0  0  0  0  0  0  0  0  0  0
    0.0000   -1.5000    0.0000 C   0  0  0  0  0  0  0  0  0  0  0  0
   -1.2990   -0.7500    0.0000 C   0  0  0  0  0  0  0  0  0  0  0  0
   -1.2990    0.7500    0.0000 C   0  0  0  0  0  0  0  0  0  0  0  0
    0.0000    1.5000    0.0000 C   0  0  0  0  0  0  0  0  0  0  0  0
    1.2990    0.7500    0.0000 C   0  0  0  0  0  0  0  0  0  0  0  0
    0.0000   -2.7000    0.0000 Cl  0  0  0  0  0  0  0  0  0  0  0  0
   -2.3383   -1.3500    0.0000 Cl  0  0  0  0  0  0  0  0  0  0  0  0
    9.0720   -9.7724    0.0000 C   0  0  0  0  0  0  0  0  0  0  0  0
    9.0765   -8.2716    0.0000 C   0  0  0  0  0  0  0  0  0  0  0  0
    7.7795   -7.5165    0.0000 N   0  0  0  0  0  0  0  0  0  0  0  0
   10.1178   -7.6751    0.0000 O   0  0  0  0  0  0  0  0  0  0  0  0
    8.3104  -12.0550    0.0000 C   0  0  0  0  0  0  0  0  0  0  0  0
    7.8541  -10.6261    0.0000 N   0  0  0  0  0  0  0  0  0  0  0  0
   10.2812  -10.6384    0.0000 C   0  0  0  0  0  0  0  0  0  0  0  0
    9.8104  -12.0626    0.0000 N   0  0  0  0  0  0  0  0  0  0  0  0
   10.6864  -13.2812    0.0000 C   0  0  0  0  0  0  0  0  0  0  0  0
   10.1748  -14.6860    0.0000 C   0  0  0  0  0  0  0  0  0  0  0  0
   11.1395  -15.8346    0.0000 C   0  0  0  0  0  0  0  0  0  0  0  0
   12.6166  -15.5735    0.0000 C   0  0  0  0  0  0  0  0  0  0  0  0
   13.1290  -14.1637    0.0000 C   0  0  0  0  0  0  0  0  0  0  0  0
   12.1643  -13.0151    0.0000 C   0  0  0  0  0  0  0  0  0  0  0  0
   11.4221  -10.2666    0.0000 C   0  0  0  0  0  0  0  0  0  0  0  0
    7.4212  -13.2608    0.0000 C   0  0  0  0  0  0  0  0  0  0  0  0
    7.7840   -6.0157    0.0000 C   0  0  0  0  0  0  0  0  0  0  0  0
    6.4870   -5.2605    0.0000 C   0  0  0  0  0  0  0  0  0  0  0  0
    6.4915   -3.7597    0.0000 C   0  0  0  0  0  0  0  0  0  0  0  0
    6.2286  -13.1276    0.0000 C   0  0  0  0  0  0  0  0  0  0  0  0
   23.1290   -7.1673    0.0000 Cl  0  0  0  0  0  0  0  0  0  0  0  0
   20.6290   -7.1673    0.0000 Cl  0  0  0  0  0  0  0  0  0  0  0  0
   18.1290   -7.1673    0.0000 Cl  0  0  0  0  0  0  0  0  0  0  0  0
   15.6290   -7.1673    0.0000 Cl  0  0  0  0  0  0  0  0  0  0  0  0
 16 17  1  0
  8  9  2  0
 16 18  2  0
 19 20  2  0
  2  3  1  0
  9 10  1  0
  3  4  1  0
 10 11  2  0
 20 15  1  0
 15 21  2  0
 21 22  1  0
 22 19  1  0
  4  5  1  0
 11 12  1  0
 23 24  2  0
 12  7  2  0
 24 25  1  0
  4  7  1  0
 25 26  2  0
  5  6  1  0
 26 27  1  0
  8 13  1  0
 27 28  2  0
 28 23  1  0
 22 23  1  0
  1  2  1  0
 21 29  1  0
  9 14  1  0
 19 30  1  0
 17 31  1  0
  7  8  1  0
 31 32  1  0
 15 16  1  0
 32 33  1  0
 33  1  1  0
  1  6  1  0
 30 34  1  0
M  END
>  <ACTIVITY>  (98) 
48

$$$$

     RDKit          2D

 39 38  0  0  0  0  0  0  0  0999 V2000
    5.1945   -3.0045    0.0000 N   0  0  0  0  0  0  0  0  0  0  0  0
    5.1969   -1.5045    0.0000 C   0  0  0  0  0  0  0  0  0  0  0  0
    3.8991   -0.7525    0.0000 C   0  0  0  0  0  0  0  0  0  0  0  0
    2.5987   -1.5004    0.0000 N   0  0  0  0  0  0  0  0  0  0  0  0
    2.5965   -3.0004    0.0000 C   0  0  0  0  0  0  0  0  0  0  0  0
    3.8943   -3.7525    0.0000 C   0  0  0  0  0  0  0  0  0  0  0  0
    1.2990   -0.7500    0.0000 C   0  0  0  0  0  0  0  0  0  0  0  0
    0.0000   -1.5000    0.0000 C   0  0  0  0  0  0  0  0  0  0  0  0
   -1.2990   -0.7500    0.0000 C   0  0  0  0  0  0  0  0  0  0  0  0
   -1.2990    0.7500    0.0000 C   0  0  0  0  0  0  0  0  0  0  0  0
    0.0000    1.5000    0.0000 C   0  0  0  0  0  0  0  0  0  0  0  0
    1.2990    0.7500    0.0000 C   0  0  0  0  0  0  0  0  0  0  0  0
    0.0000   -2.7000    0.0000 Cl  0  0  0  0  0  0  0  0  0  0  0  0
   -2.3383   -1.3500    0.0000 Cl  0  0  0  0  0  0  0  0  0  0  0  0
    9.0720   -9.7724    0.0000 C   0  0  0  0  0  0  0  0  0  0  0  0
    9.0765   -8.2716    0.0000 C   0  0  0  0  0  0  0  0  0  0  0  0
    7.7795   -7.5165    0.0000 N   0  0  0  0  0  0  0  0  0  0  0  0
   10.1178   -7.6751    0.0000 O   0  0  0  0  0  0  0  0  0  0  0  0
    8.3104  -12.0550    0.0000 C   0  0  0  0  0  0  0  0  0  0  0  0
    7.8541  -10.6261    0.0000 N   0  0  0  0  0  0  0  0  0  0  0  0
   10.2812  -10.6384    0.0000 C   0  0  0  0  0  0  0  0  0  0  0  0
    9.8104  -12.0626    0.0000 N   0  0  0  0  0  0  0  0  0  0  0  0
   10.6864  -13.2812    0.0000 C   0  0  0  0  0  0  0  0  0  0  0  0
   10.1748  -14.6860    0.0000 C   0  0  0  0  0  0  0  0  0  0  0  0
   11.1395  -15.8346    0.0000 C   0  0  0  0  0  0  0  0  0  0  0  0
   12.6166  -15.5735    0.0000 C   0  0  0  0  0  0  0  0  0  0  0  0
   13.1290  -14.1637    0.0000 C   0  0  0  0  0  0  0  0  0  0  0  0
   12.1643  -13.0151    0.0000 C   0  0  0  0  0  0  0  0  0  0  0  0
   11.4221  -10.2666    0.0000 C   0  0  0  0  0  0  0  0  0  0  0  0
    7.4212  -13.2608    0.0000 C   0  0  0  0  0  0  0  0  0  0  0  0
    7.7840   -6.0157    0.0000 C   0  0  0  0  0  0  0  0  0  0  0  0
    6.4870   -5.2605    0.0000 C   0  0  0  0  0  0  0  0  0  0  0  0
    6.4915   -3.7597    0.0000 C   0  0  0  0  0  0  0  0  0  0  0  0
    5.9296  -13.0942    0.0000 C   0  0  0  0  0  0  0  0  0  0  0  0
    5.2174  -14.0600    0.0000 C   0  0  0  0  0  0  0  0  0  0  0  0
   23.1290   -7.1673    0.0000 Cl  0  0  0  0  0  0  0  0  0  0  0  0
   20.6290   -7.1673    0.0000 Cl  0  0  0  0  0  0  0  0  0  0  0  0
   18.1290   -7.1673    0.0000 Cl  0  0  0  0  0  0  0  0  0  0  0  0
   15.6290   -7.1673    0.0000 Cl  0  0  0  0  0  0  0  0  0  0  0  0
  8  9  2  0
 16 18  2  0
 19 20  2  0
  2  3  1  0
  9 10  1  0
  3  4  1  0
 10 11  2  0
 20 15  1  0
 15 21  2  0
 21 22  1  0
 22 19  1  0
  4  5  1  0
 11 12  1  0
 23 24  2  0
 12  7  2  0
 24 25  1  0
  4  7  1  0
 25 26  2  0
  5  6  1  0
 26 27  1  0
  8 13  1  0
 27 28  2  0
 28 23  1  0
 22 23  1  0
  1  2  1  0
 21 29  1  0
  9 14  1  0
 19 30  1  0
 17 31  1  0
  7  8  1  0
 31 32  1  0
 15 16  1  0
 32 33  1  0
 33  1  1  0
  1  6  1  0
 30 34  1  0
 16 17  1  0
 34 35  1  0
M  END
>  <ACTIVITY>  (99) 
21

$$$$

     RDKit          2D

 42 42  0  0  0  0  0  0  0  0999 V2000
    1.2990   -0.7500    0.0000 N   0  0  0  0  0  0  0  0  0  0  0  0
    1.2990    0.7500    0.0000 C   0  0  0  0  0  0  0  0  0  0  0  0
    0.0000    1.5000    0.0000 C   0  0  0  0  0  0  0  0  0  0  0  0
   -1.2990    0.7500    0.0000 N   0  0  0  0  0  0  0  0  0  0  0  0
   -1.2990   -0.7500    0.0000 C   0  0  0  0  0  0  0  0  0  0  0  0
    0.0000   -1.5000    0.0000 C   0  0  0  0  0  0  0  0  0  0  0  0
   -2.5987    1.5004    0.0000 C   0  0  0  0  0  0  0  0  0  0  0  0
   -2.6012    3.0004    0.0000 C   0  0  0  0  0  0  0  0  0  0  0  0
   -3.9014    3.7484    0.0000 C   0  0  0  0  0  0  0  0  0  0  0  0
   -5.1993    2.9963    0.0000 C   0  0  0  0  0  0  0  0  0  0  0  0
   -5.1969    1.4963    0.0000 C   0  0  0  0  0  0  0  0  0  0  0  0
   -3.8967    0.7484    0.0000 C   0  0  0  0  0  0  0  0  0  0  0  0
   -1.5630    3.6021    0.0000 Cl  0  0  0  0  0  0  0  0  0  0  0  0
   -3.9034    4.9484    0.0000 Cl  0  0  0  0  0  0  0  0  0  0  0  0
    5.1873   -7.5117    0.0000 C   0  0  0  0  0  0  0  0  0  0  0  0
    5.1894   -6.0109    0.0000 C   0  0  0  0  0  0  0  0  0  0  0  0
    3.8912   -5.2578    0.0000 N   0  0  0  0  0  0  0  0  0  0  0  0
    6.2297   -5.4127    0.0000 O   0  0  0  0  0  0  0  0  0  0  0  0
    4.4293   -9.7955    0.0000 C   0  0  0  0  0  0  0  0  0  0  0  0
    3.9707   -8.3673    0.0000 N   0  0  0  0  0  0  0  0  0  0  0  0
    6.3978   -8.3758    0.0000 C   0  0  0  0  0  0  0  0  0  0  0  0
    5.9293   -9.8007    0.0000 N   0  0  0  0  0  0  0  0  0  0  0  0
    6.8072  -11.0179    0.0000 C   0  0  0  0  0  0  0  0  0  0  0  0
    6.2979  -12.4235    0.0000 C   0  0  0  0  0  0  0  0  0  0  0  0
    7.2644  -13.5706    0.0000 C   0  0  0  0  0  0  0  0  0  0  0  0
    8.7411  -13.3071    0.0000 C   0  0  0  0  0  0  0  0  0  0  0  0
    9.2512  -11.8966    0.0000 C   0  0  0  0  0  0  0  0  0  0  0  0
    8.2847  -10.7495    0.0000 C   0  0  0  0  0  0  0  0  0  0  0  0
    7.5381   -8.0021    0.0000 C   0  0  0  0  0  0  0  0  0  0  0  0
    3.5430  -11.0066    0.0000 C   0  0  0  0  0  0  0  0  0  0  0  0
    3.8933   -3.7570    0.0000 C   0  0  0  0  0  0  0  0  0  0  0  0
    2.5951   -3.0039    0.0000 C   0  0  0  0  0  0  0  0  0  0  0  0
    2.5973   -1.5031    0.0000 C   0  0  0  0  0  0  0  0  0  0  0  0
    2.0488  -10.9565    0.0000 C   0  0  0  0  0  0  0  0  0  0  0  0
    1.2565  -12.2302    0.0000 C   0  0  0  0  0  0  0  0  0  0  0  0
    1.9634  -13.5532    0.0000 C   0  0  0  0  0  0  0  0  0  0  0  0
    3.4626  -13.6025    0.0000 C   0  0  0  0  0  0  0  0  0  0  0  0
    4.2549  -12.3288    0.0000 C   0  0  0  0  0  0  0  0  0  0  0  0
   19.2512   -4.1767    0.0000 Cl  0  0  0  0  0  0  0  0  0  0  0  0
   16.7512   -4.1767    0.0000 Cl  0  0  0  0  0  0  0  0  0  0  0  0
   14.2512   -4.1767    0.0000 Cl  0  0  0  0  0  0  0  0  0  0  0  0
   11.7512   -4.1767    0.0000 Cl  0  0  0  0  0  0  0  0  0  0  0  0
  2  3  1  0
  9 10  2  0
  3  4  1  0
 10 11  1  0
 20 15  1  0
 15 21  2  0
 21 22  1  0
 22 19  1  0
  4  5  1  0
 11 12  2  0
 23 24  2  0
 12  7  1  0
 24 25  1  0
  4  7  1  0
 25 26  2  0
  5  6  1  0
 26 27  1  0
  8 13  1  0
 27 28  2  0
 28 23  1  0
 22 23  1  0
  1  2  1  0
 21 29  1  0
  9 14  1  0
 19 30  1  0
 17 31  1  0
  7  8  2  0
 31 32  1  0
 15 16  1  0
 32 33  1  0
 33  1  1  0
  1  6  1  0
 30 34  2  0
 16 17  1  0
 34 35  1  0
  8  9  1  0
 35 36  2  0
 16 18  2  0
 36 37  1  0
 19 20  2  0
 37 38  2  0
 38 30  1  0
M  END
>  <ACTIVITY>  (100) 
14.2

$$$$

     RDKit          2D

 34 32  0  0  0  0  0  0  0  0999 V2000
    5.1945   -3.0045    0.0000 N   0  0  0  0  0  0  0  0  0  0  0  0
    5.1969   -1.5045    0.0000 C   0  0  0  0  0  0  0  0  0  0  0  0
    3.8991   -0.7525    0.0000 C   0  0  0  0  0  0  0  0  0  0  0  0
    2.5987   -1.5004    0.0000 N   0  0  0  0  0  0  0  0  0  0  0  0
    2.5965   -3.0004    0.0000 C   0  0  0  0  0  0  0  0  0  0  0  0
    3.8943   -3.7525    0.0000 C   0  0  0  0  0  0  0  0  0  0  0  0
    1.2990   -0.7500    0.0000 C   0  0  0  0  0  0  0  0  0  0  0  0
    1.2990    0.7500    0.0000 C   0  0  0  0  0  0  0  0  0  0  0  0
    0.0000    1.5000    0.0000 C   0  0  0  0  0  0  0  0  0  0  0  0
   -1.2990    0.7500    0.0000 C   0  0  0  0  0  0  0  0  0  0  0  0
   -1.2990   -0.7500    0.0000 C   0  0  0  0  0  0  0  0  0  0  0  0
    0.0000   -1.5000    0.0000 C   0  0  0  0  0  0  0  0  0  0  0  0
    2.3383    1.3500    0.0000 Cl  0  0  0  0  0  0  0  0  0  0  0  0
    0.0000    2.7000    0.0000 Cl  0  0  0  0  0  0  0  0  0  0  0  0
   12.9945   -3.0033    0.0000 C   0  0  0  0  0  0  0  0  0  0  0  0
   11.6946   -3.7535    0.0000 C   0  0  0  0  0  0  0  0  0  0  0  0
   10.3945   -3.0037    0.0000 N   0  0  0  0  0  0  0  0  0  0  0  0
   11.6948   -4.9535    0.0000 O   0  0  0  0  0  0  0  0  0  0  0  0
   14.5962   -1.2075    0.0000 C   0  0  0  0  0  0  0  0  0  0  0  0
   13.1295   -1.5222    0.0000 N   0  0  0  0  0  0  0  0  0  0  0  0
   14.3470   -3.6217    0.0000 C   0  0  0  0  0  0  0  0  0  0  0  0
   15.3486   -2.5051    0.0000 N   0  0  0  0  0  0  0  0  0  0  0  0
   16.8393   -2.6558    0.0000 C   0  0  0  0  0  0  0  0  0  0  0  0
   17.7174   -1.4387    0.0000 C   0  0  0  0  0  0  0  0  0  0  0  0
   18.9113   -1.5594    0.0000 C   0  0  0  0  0  0  0  0  0  0  0  0
   14.5918   -4.7965    0.0000 C   0  0  0  0  0  0  0  0  0  0  0  0
   15.0822   -0.1103    0.0000 C   0  0  0  0  0  0  0  0  0  0  0  0
    9.0946   -3.7539    0.0000 C   0  0  0  0  0  0  0  0  0  0  0  0
    7.7945   -3.0041    0.0000 C   0  0  0  0  0  0  0  0  0  0  0  0
    6.4947   -3.7543    0.0000 C   0  0  0  0  0  0  0  0  0  0  0  0
   29.2106   -1.1267    0.0000 Cl  0  0  0  0  0  0  0  0  0  0  0  0
   26.7106   -1.1267    0.0000 Cl  0  0  0  0  0  0  0  0  0  0  0  0
   24.2106   -1.1267    0.0000 Cl  0  0  0  0  0  0  0  0  0  0  0  0
   21.7106   -1.1267    0.0000 Cl  0  0  0  0  0  0  0  0  0  0  0  0
  7  8  2  0
 15 16  1  0
  1  6  1  0
 16 17  1  0
  8  9  1  0
 16 18  2  0
 19 20  2  0
  2  3  1  0
  9 10  2  0
  3  4  1  0
 10 11  1  0
 20 15  1  0
 15 21  2  0
 21 22  1  0
 22 19  1  0
  4  5  1  0
 11 12  2  0
 23 24  1  0
 12  7  1  0
 24 25  1  0
 22 23  1  0
  4  7  1  0
 21 26  1  0
  5  6  1  0
 19 27  1  0
  8 13  1  0
 17 28  1  0
  1  2  1  0
 28 29  1  0
  9 14  1  0
 29 30  1  0
 30  1  1  0
M  END
>  <ACTIVITY>  (101) 
26

$$$$

     RDKit          2D

 36 35  0  0  0  0  0  0  0  0999 V2000
    1.2990   -0.7500    0.0000 N   0  0  0  0  0  0  0  0  0  0  0  0
    0.0000   -1.5000    0.0000 C   0  0  0  0  0  0  0  0  0  0  0  0
   -1.2990   -0.7500    0.0000 C   0  0  0  0  0  0  0  0  0  0  0  0
   -1.2990    0.7500    0.0000 N   0  0  0  0  0  0  0  0  0  0  0  0
    0.0000    1.5000    0.0000 C   0  0  0  0  0  0  0  0  0  0  0  0
    1.2990    0.7500    0.0000 C   0  0  0  0  0  0  0  0  0  0  0  0
   -2.5987    1.5004    0.0000 C   0  0  0  0  0  0  0  0  0  0  0  0
   -2.6012    3.0004    0.0000 C   0  0  0  0  0  0  0  0  0  0  0  0
   -3.9014    3.7484    0.0000 C   0  0  0  0  0  0  0  0  0  0  0  0
   -5.1993    2.9963    0.0000 C   0  0  0  0  0  0  0  0  0  0  0  0
   -5.1969    1.4963    0.0000 C   0  0  0  0  0  0  0  0  0  0  0  0
   -3.8967    0.7484    0.0000 C   0  0  0  0  0  0  0  0  0  0  0  0
   -1.5630    3.6021    0.0000 Cl  0  0  0  0  0  0  0  0  0  0  0  0
   -3.9034    4.9484    0.0000 Cl  0  0  0  0  0  0  0  0  0  0  0  0
    5.1873   -7.5117    0.0000 C   0  0  0  0  0  0  0  0  0  0  0  0
    5.1894   -6.0109    0.0000 C   0  0  0  0  0  0  0  0  0  0  0  0
    3.8912   -5.2578    0.0000 N   0  0  0  0  0  0  0  0  0  0  0  0
    6.2297   -5.4127    0.0000 O   0  0  0  0  0  0  0  0  0  0  0  0
    4.4293   -9.7955    0.0000 C   0  0  0  0  0  0  0  0  0  0  0  0
    3.9707   -8.3673    0.0000 N   0  0  0  0  0  0  0  0  0  0  0  0
    6.3978   -8.3758    0.0000 C   0  0  0  0  0  0  0  0  0  0  0  0
    5.9293   -9.8007    0.0000 N   0  0  0  0  0  0  0  0  0  0  0  0
    7.5381   -8.0021    0.0000 C   0  0  0  0  0  0  0  0  0  0  0  0
    3.7206  -10.7639    0.0000 C   0  0  0  0  0  0  0  0  0  0  0  0
    3.8933   -3.7570    0.0000 C   0  0  0  0  0  0  0  0  0  0  0  0
    2.5951   -3.0039    0.0000 C   0  0  0  0  0  0  0  0  0  0  0  0
    2.5973   -1.5031    0.0000 C   0  0  0  0  0  0  0  0  0  0  0  0
    6.8072  -11.0179    0.0000 C   0  0  0  0  0  0  0  0  0  0  0  0
    6.4380  -12.4537    0.0000 C   0  0  0  0  0  0  0  0  0  0  0  0
    7.7140  -13.2422    0.0000 C   0  0  0  0  0  0  0  0  0  0  0  0
    8.8583  -12.2722    0.0000 C   0  0  0  0  0  0  0  0  0  0  0  0
    8.2894  -10.8843    0.0000 C   0  0  0  0  0  0  0  0  0  0  0  0
   18.8583   -3.9965    0.0000 Cl  0  0  0  0  0  0  0  0  0  0  0  0
   16.3583   -3.9965    0.0000 Cl  0  0  0  0  0  0  0  0  0  0  0  0
   13.8583   -3.9965    0.0000 Cl  0  0  0  0  0  0  0  0  0  0  0  0
   11.3583   -3.9965    0.0000 Cl  0  0  0  0  0  0  0  0  0  0  0  0
 15 16  1  0
  1  6  1  0
 16 17  1  0
  8  9  2  0
 16 18  2  0
 19 20  2  0
  2  3  1  0
  9 10  1  0
  3  4  1  0
 10 11  2  0
 20 15  1  0
 15 21  2  0
 21 22  1  0
 22 19  1  0
  4  5  1  0
 21 23  1  0
 11 12  1  0
 19 24  1  0
 12  7  2  0
 17 25  1  0
  4  7  1  0
 25 26  1  0
  5  6  1  0
 26 27  1  0
 27  1  1  0
 28 29  1  0
  8 13  1  0
  1  2  1  0
  9 14  1  0
  7  8  1  0
 29 30  1  0
 30 31  1  0
 31 32  1  0
 32 28  1  0
 22 28  1  0
M  END
>  <ACTIVITY>  (102) 
55

$$$$

     RDKit          2D

 39 38  0  0  0  0  0  0  0  0999 V2000
    5.1945   -3.0045    0.0000 N   0  0  0  0  0  0  0  0  0  0  0  0
    5.1969   -1.5045    0.0000 C   0  0  0  0  0  0  0  0  0  0  0  0
    3.8991   -0.7525    0.0000 C   0  0  0  0  0  0  0  0  0  0  0  0
    2.5987   -1.5004    0.0000 N   0  0  0  0  0  0  0  0  0  0  0  0
    2.5965   -3.0004    0.0000 C   0  0  0  0  0  0  0  0  0  0  0  0
    3.8943   -3.7525    0.0000 C   0  0  0  0  0  0  0  0  0  0  0  0
    1.2990   -0.7500    0.0000 C   0  0  0  0  0  0  0  0  0  0  0  0
    0.0000   -1.5000    0.0000 C   0  0  0  0  0  0  0  0  0  0  0  0
   -1.2990   -0.7500    0.0000 C   0  0  0  0  0  0  0  0  0  0  0  0
   -1.2990    0.7500    0.0000 C   0  0  0  0  0  0  0  0  0  0  0  0
    0.0000    1.5000    0.0000 C   0  0  0  0  0  0  0  0  0  0  0  0
    1.2990    0.7500    0.0000 C   0  0  0  0  0  0  0  0  0  0  0  0
    0.0000   -2.7000    0.0000 Cl  0  0  0  0  0  0  0  0  0  0  0  0
   -2.3383   -1.3500    0.0000 Cl  0  0  0  0  0  0  0  0  0  0  0  0
    9.0720   -9.7724    0.0000 C   0  0  0  0  0  0  0  0  0  0  0  0
    9.0765   -8.2716    0.0000 C   0  0  0  0  0  0  0  0  0  0  0  0
    7.7795   -7.5165    0.0000 N   0  0  0  0  0  0  0  0  0  0  0  0
   10.1178   -7.6751    0.0000 O   0  0  0  0  0  0  0  0  0  0  0  0
    8.3104  -12.0550    0.0000 C   0  0  0  0  0  0  0  0  0  0  0  0
    7.8541  -10.6261    0.0000 N   0  0  0  0  0  0  0  0  0  0  0  0
   10.2812  -10.6384    0.0000 C   0  0  0  0  0  0  0  0  0  0  0  0
    9.8104  -12.0626    0.0000 N   0  0  0  0  0  0  0  0  0  0  0  0
   10.6864  -13.2812    0.0000 C   0  0  0  0  0  0  0  0  0  0  0  0
   11.4221  -10.2666    0.0000 C   0  0  0  0  0  0  0  0  0  0  0  0
    7.6002  -13.0223    0.0000 C   0  0  0  0  0  0  0  0  0  0  0  0
    7.7840   -6.0157    0.0000 C   0  0  0  0  0  0  0  0  0  0  0  0
    6.4870   -5.2605    0.0000 C   0  0  0  0  0  0  0  0  0  0  0  0
    6.4915   -3.7597    0.0000 C   0  0  0  0  0  0  0  0  0  0  0  0
   10.1748  -14.6860    0.0000 C   0  0  0  0  0  0  0  0  0  0  0  0
   11.1395  -15.8346    0.0000 C   0  0  0  0  0  0  0  0  0  0  0  0
   12.6166  -15.5735    0.0000 C   0  0  0  0  0  0  0  0  0  0  0  0
   13.1290  -14.1637    0.0000 C   0  0  0  0  0  0  0  0  0  0  0  0
   12.1643  -13.0151    0.0000 C   0  0  0  0  0  0  0  0  0  0  0  0
    8.6971  -14.9485    0.0000 O   0  0  0  0  0  0  0  0  0  0  0  0
    8.2874  -16.0764    0.0000 C   0  0  0  0  0  0  0  0  0  0  0  0
   23.1290   -7.4296    0.0000 Cl  0  0  0  0  0  0  0  0  0  0  0  0
   20.6290   -7.4296    0.0000 Cl  0  0  0  0  0  0  0  0  0  0  0  0
   18.1290   -7.4296    0.0000 Cl  0  0  0  0  0  0  0  0  0  0  0  0
   15.6290   -7.4296    0.0000 Cl  0  0  0  0  0  0  0  0  0  0  0  0
  8  9  2  0
 16 18  2  0
 19 20  2  0
  2  3  1  0
  9 10  1  0
  3  4  1  0
 10 11  2  0
 20 15  1  0
 15 21  2  0
 21 22  1  0
 22 19  1  0
  4  5  1  0
 22 23  1  0
 11 12  1  0
 21 24  1  0
 12  7  2  0
 19 25  1  0
  4  7  1  0
 17 26  1  0
  5  6  1  0
 26 27  1  0
  8 13  1  0
 27 28  1  0
 28  1  1  0
  1  2  1  0
 23 29  2  0
  9 14  1  0
 29 30  1  0
 30 31  2  0
  7  8  1  0
 31 32  1  0
 15 16  1  0
 32 33  2  0
 33 23  1  0
  1  6  1  0
 29 34  1  0
 16 17  1  0
 34 35  1  0
M  END
>  <ACTIVITY>  (103) 
10.3

$$$$

     RDKit          2D

 41 40  0  0  0  0  0  0  0  0999 V2000
    1.2990   -0.7500    0.0000 N   0  0  0  0  0  0  0  0  0  0  0  0
    1.2990    0.7500    0.0000 C   0  0  0  0  0  0  0  0  0  0  0  0
    0.0000    1.5000    0.0000 C   0  0  0  0  0  0  0  0  0  0  0  0
   -1.2990    0.7500    0.0000 N   0  0  0  0  0  0  0  0  0  0  0  0
   -1.2990   -0.7500    0.0000 C   0  0  0  0  0  0  0  0  0  0  0  0
    0.0000   -1.5000    0.0000 C   0  0  0  0  0  0  0  0  0  0  0  0
   -2.5987    1.5004    0.0000 C   0  0  0  0  0  0  0  0  0  0  0  0
   -2.6012    3.0004    0.0000 C   0  0  0  0  0  0  0  0  0  0  0  0
   -3.9014    3.7484    0.0000 C   0  0  0  0  0  0  0  0  0  0  0  0
   -5.1993    2.9963    0.0000 C   0  0  0  0  0  0  0  0  0  0  0  0
   -5.1969    1.4963    0.0000 C   0  0  0  0  0  0  0  0  0  0  0  0
   -3.8967    0.7484    0.0000 C   0  0  0  0  0  0  0  0  0  0  0  0
   -1.5630    3.6021    0.0000 Cl  0  0  0  0  0  0  0  0  0  0  0  0
   -3.9034    4.9484    0.0000 Cl  0  0  0  0  0  0  0  0  0  0  0  0
    5.1873   -7.5117    0.0000 C   0  0  0  0  0  0  0  0  0  0  0  0
    5.1894   -6.0109    0.0000 C   0  0  0  0  0  0  0  0  0  0  0  0
    3.8912   -5.2578    0.0000 N   0  0  0  0  0  0  0  0  0  0  0  0
    6.2297   -5.4127    0.0000 O   0  0  0  0  0  0  0  0  0  0  0  0
    4.4293   -9.7955    0.0000 C   0  0  0  0  0  0  0  0  0  0  0  0
    3.9707   -8.3673    0.0000 N   0  0  0  0  0  0  0  0  0  0  0  0
    6.3978   -8.3758    0.0000 C   0  0  0  0  0  0  0  0  0  0  0  0
    5.9293   -9.8007    0.0000 N   0  0  0  0  0  0  0  0  0  0  0  0
    6.8072  -11.0179    0.0000 C   0  0  0  0  0  0  0  0  0  0  0  0
    7.5381   -8.0021    0.0000 C   0  0  0  0  0  0  0  0  0  0  0  0
    3.5419  -11.0027    0.0000 C   0  0  0  0  0  0  0  0  0  0  0  0
    3.8933   -3.7570    0.0000 C   0  0  0  0  0  0  0  0  0  0  0  0
    2.5951   -3.0039    0.0000 C   0  0  0  0  0  0  0  0  0  0  0  0
    2.5973   -1.5031    0.0000 C   0  0  0  0  0  0  0  0  0  0  0  0
    6.2979  -12.4235    0.0000 C   0  0  0  0  0  0  0  0  0  0  0  0
    7.2644  -13.5706    0.0000 C   0  0  0  0  0  0  0  0  0  0  0  0
    8.7411  -13.3071    0.0000 C   0  0  0  0  0  0  0  0  0  0  0  0
    9.2512  -11.8966    0.0000 C   0  0  0  0  0  0  0  0  0  0  0  0
    8.2847  -10.7495    0.0000 C   0  0  0  0  0  0  0  0  0  0  0  0
    4.8206  -12.6884    0.0000 O   0  0  0  0  0  0  0  0  0  0  0  0
    4.4127  -13.8170    0.0000 C   0  0  0  0  0  0  0  0  0  0  0  0
    2.0501  -10.8385    0.0000 C   0  0  0  0  0  0  0  0  0  0  0  0
    1.3394  -11.8054    0.0000 C   0  0  0  0  0  0  0  0  0  0  0  0
   19.2512   -4.4254    0.0000 Cl  0  0  0  0  0  0  0  0  0  0  0  0
   16.7512   -4.4254    0.0000 Cl  0  0  0  0  0  0  0  0  0  0  0  0
   14.2512   -4.4254    0.0000 Cl  0  0  0  0  0  0  0  0  0  0  0  0
   11.7512   -4.4254    0.0000 Cl  0  0  0  0  0  0  0  0  0  0  0  0
 19 20  2  0
  2  3  1  0
  9 10  2  0
  3  4  1  0
 10 11  1  0
 20 15  1  0
 15 21  2  0
 21 22  1  0
 22 19  1  0
  4  5  1  0
 22 23  1  0
 11 12  2  0
 21 24  1  0
 12  7  1  0
 19 25  1  0
  4  7  1  0
 17 26  1  0
  5  6  1  0
 26 27  1  0
  8 13  1  0
 27 28  1  0
 28  1  1  0
  1  2  1  0
 23 29  2  0
  9 14  1  0
 29 30  1  0
 30 31  2  0
  7  8  2  0
 31 32  1  0
 15 16  1  0
 32 33  2  0
 33 23  1  0
  1  6  1  0
 29 34  1  0
 16 17  1  0
 34 35  1  0
  8  9  1  0
 25 36  1  0
 16 18  2  0
 36 37  1  0
M  END
>  <ACTIVITY>  (104) 
139

$$$$

     RDKit          2D

 39 38  0  0  0  0  0  0  0  0999 V2000
    5.1945   -3.0045    0.0000 N   0  0  0  0  0  0  0  0  0  0  0  0
    5.1969   -1.5045    0.0000 C   0  0  0  0  0  0  0  0  0  0  0  0
    3.8991   -0.7525    0.0000 C   0  0  0  0  0  0  0  0  0  0  0  0
    2.5987   -1.5004    0.0000 N   0  0  0  0  0  0  0  0  0  0  0  0
    2.5965   -3.0004    0.0000 C   0  0  0  0  0  0  0  0  0  0  0  0
    3.8943   -3.7525    0.0000 C   0  0  0  0  0  0  0  0  0  0  0  0
    1.2990   -0.7500    0.0000 C   0  0  0  0  0  0  0  0  0  0  0  0
    0.0000   -1.5000    0.0000 C   0  0  0  0  0  0  0  0  0  0  0  0
   -1.2990   -0.7500    0.0000 C   0  0  0  0  0  0  0  0  0  0  0  0
   -1.2990    0.7500    0.0000 C   0  0  0  0  0  0  0  0  0  0  0  0
    0.0000    1.5000    0.0000 C   0  0  0  0  0  0  0  0  0  0  0  0
    1.2990    0.7500    0.0000 C   0  0  0  0  0  0  0  0  0  0  0  0
    0.0000   -2.7000    0.0000 Cl  0  0  0  0  0  0  0  0  0  0  0  0
   -2.3383   -1.3500    0.0000 Cl  0  0  0  0  0  0  0  0  0  0  0  0
    9.0720   -9.7724    0.0000 C   0  0  0  0  0  0  0  0  0  0  0  0
    9.0765   -8.2716    0.0000 C   0  0  0  0  0  0  0  0  0  0  0  0
    7.7795   -7.5165    0.0000 N   0  0  0  0  0  0  0  0  0  0  0  0
   10.1178   -7.6751    0.0000 O   0  0  0  0  0  0  0  0  0  0  0  0
    8.3104  -12.0550    0.0000 C   0  0  0  0  0  0  0  0  0  0  0  0
    7.8541  -10.6261    0.0000 N   0  0  0  0  0  0  0  0  0  0  0  0
   10.2812  -10.6384    0.0000 C   0  0  0  0  0  0  0  0  0  0  0  0
    9.8104  -12.0626    0.0000 N   0  0  0  0  0  0  0  0  0  0  0  0
   10.6864  -13.2812    0.0000 C   0  0  0  0  0  0  0  0  0  0  0  0
   11.4221  -10.2666    0.0000 C   0  0  0  0  0  0  0  0  0  0  0  0
    7.6002  -13.0223    0.0000 C   0  0  0  0  0  0  0  0  0  0  0  0
    7.7840   -6.0157    0.0000 C   0  0  0  0  0  0  0  0  0  0  0  0
    6.4870   -5.2605    0.0000 C   0  0  0  0  0  0  0  0  0  0  0  0
    6.4915   -3.7597    0.0000 C   0  0  0  0  0  0  0  0  0  0  0  0
   10.1748  -14.6860    0.0000 C   0  0  0  0  0  0  0  0  0  0  0  0
   11.1395  -15.8346    0.0000 C   0  0  0  0  0  0  0  0  0  0  0  0
   12.6166  -15.5735    0.0000 C   0  0  0  0  0  0  0  0  0  0  0  0
   13.1290  -14.1637    0.0000 C   0  0  0  0  0  0  0  0  0  0  0  0
   12.1643  -13.0151    0.0000 C   0  0  0  0  0  0  0  0  0  0  0  0
   13.5842  -16.7208    0.0000 O   0  0  0  0  0  0  0  0  0  0  0  0
   14.7656  -16.5102    0.0000 C   0  0  0  0  0  0  0  0  0  0  0  0
   25.0617   -7.6104    0.0000 Cl  0  0  0  0  0  0  0  0  0  0  0  0
   22.5617   -7.6104    0.0000 Cl  0  0  0  0  0  0  0  0  0  0  0  0
   20.0617   -7.6104    0.0000 Cl  0  0  0  0  0  0  0  0  0  0  0  0
   17.5617   -7.6104    0.0000 Cl  0  0  0  0  0  0  0  0  0  0  0  0
  8  9  2  0
 16 18  2  0
 19 20  2  0
  2  3  1  0
  9 10  1  0
  3  4  1  0
 10 11  2  0
 20 15  1  0
 15 21  2  0
 21 22  1  0
 22 19  1  0
  4  5  1  0
 22 23  1  0
 11 12  1  0
 21 24  1  0
 12  7  2  0
 19 25  1  0
  4  7  1  0
 17 26  1  0
  5  6  1  0
 26 27  1  0
  8 13  1  0
 27 28  1  0
 28  1  1  0
  1  2  1  0
 23 29  2  0
  9 14  1  0
 29 30  1  0
 30 31  2  0
  7  8  1  0
 31 32  1  0
 15 16  1  0
 32 33  2  0
 33 23  1  0
  1  6  1  0
 31 34  1  0
 16 17  1  0
 34 35  1  0
M  END
>  <ACTIVITY>  (105) 
20

$$$$

     RDKit          2D

 41 40  0  0  0  0  0  0  0  0999 V2000
    1.2990   -0.7500    0.0000 N   0  0  0  0  0  0  0  0  0  0  0  0
    1.2990    0.7500    0.0000 C   0  0  0  0  0  0  0  0  0  0  0  0
    0.0000    1.5000    0.0000 C   0  0  0  0  0  0  0  0  0  0  0  0
   -1.2990    0.7500    0.0000 N   0  0  0  0  0  0  0  0  0  0  0  0
   -1.2990   -0.7500    0.0000 C   0  0  0  0  0  0  0  0  0  0  0  0
    0.0000   -1.5000    0.0000 C   0  0  0  0  0  0  0  0  0  0  0  0
   -2.5987    1.5004    0.0000 C   0  0  0  0  0  0  0  0  0  0  0  0
   -2.6012    3.0004    0.0000 C   0  0  0  0  0  0  0  0  0  0  0  0
   -3.9014    3.7484    0.0000 C   0  0  0  0  0  0  0  0  0  0  0  0
   -5.1993    2.9963    0.0000 C   0  0  0  0  0  0  0  0  0  0  0  0
   -5.1969    1.4963    0.0000 C   0  0  0  0  0  0  0  0  0  0  0  0
   -3.8967    0.7484    0.0000 C   0  0  0  0  0  0  0  0  0  0  0  0
   -1.5630    3.6021    0.0000 Cl  0  0  0  0  0  0  0  0  0  0  0  0
   -3.9034    4.9484    0.0000 Cl  0  0  0  0  0  0  0  0  0  0  0  0
    5.1873   -7.5117    0.0000 C   0  0  0  0  0  0  0  0  0  0  0  0
    5.1894   -6.0109    0.0000 C   0  0  0  0  0  0  0  0  0  0  0  0
    3.8912   -5.2578    0.0000 N   0  0  0  0  0  0  0  0  0  0  0  0
    6.2297   -5.4127    0.0000 O   0  0  0  0  0  0  0  0  0  0  0  0
    4.4293   -9.7955    0.0000 C   0  0  0  0  0  0  0  0  0  0  0  0
    3.9707   -8.3673    0.0000 N   0  0  0  0  0  0  0  0  0  0  0  0
    6.3978   -8.3758    0.0000 C   0  0  0  0  0  0  0  0  0  0  0  0
    5.9293   -9.8007    0.0000 N   0  0  0  0  0  0  0  0  0  0  0  0
    6.8072  -11.0179    0.0000 C   0  0  0  0  0  0  0  0  0  0  0  0
    7.5381   -8.0021    0.0000 C   0  0  0  0  0  0  0  0  0  0  0  0
    3.5419  -11.0027    0.0000 C   0  0  0  0  0  0  0  0  0  0  0  0
    3.8933   -3.7570    0.0000 C   0  0  0  0  0  0  0  0  0  0  0  0
    2.5951   -3.0039    0.0000 C   0  0  0  0  0  0  0  0  0  0  0  0
    2.5973   -1.5031    0.0000 C   0  0  0  0  0  0  0  0  0  0  0  0
    6.2979  -12.4235    0.0000 C   0  0  0  0  0  0  0  0  0  0  0  0
    7.2644  -13.5706    0.0000 C   0  0  0  0  0  0  0  0  0  0  0  0
    8.7411  -13.3071    0.0000 C   0  0  0  0  0  0  0  0  0  0  0  0
    9.2512  -11.8966    0.0000 C   0  0  0  0  0  0  0  0  0  0  0  0
    8.2847  -10.7495    0.0000 C   0  0  0  0  0  0  0  0  0  0  0  0
    9.7105  -14.4529    0.0000 O   0  0  0  0  0  0  0  0  0  0  0  0
   10.8915  -14.2404    0.0000 C   0  0  0  0  0  0  0  0  0  0  0  0
    2.0501  -10.8385    0.0000 C   0  0  0  0  0  0  0  0  0  0  0  0
    1.3394  -11.8054    0.0000 C   0  0  0  0  0  0  0  0  0  0  0  0
   21.1876   -4.6019    0.0000 Cl  0  0  0  0  0  0  0  0  0  0  0  0
   18.6876   -4.6019    0.0000 Cl  0  0  0  0  0  0  0  0  0  0  0  0
   16.1876   -4.6019    0.0000 Cl  0  0  0  0  0  0  0  0  0  0  0  0
   13.6876   -4.6019    0.0000 Cl  0  0  0  0  0  0  0  0  0  0  0  0
 19 20  2  0
  2  3  1  0
  9 10  2  0
  3  4  1  0
 10 11  1  0
 20 15  1  0
 15 21  2  0
 21 22  1  0
 22 19  1  0
  4  5  1  0
 22 23  1  0
 11 12  2  0
 21 24  1  0
 12  7  1  0
 19 25  1  0
  4  7  1  0
 17 26  1  0
  5  6  1  0
 26 27  1  0
  8 13  1  0
 27 28  1  0
 28  1  1  0
  1  2  1  0
 23 29  2  0
  9 14  1  0
 29 30  1  0
 30 31  2  0
  7  8  2  0
 31 32  1  0
 15 16  1  0
 32 33  2  0
 33 23  1  0
  1  6  1  0
 31 34  1  0
 16 17  1  0
 34 35  1  0
  8  9  1  0
 25 36  1  0
 16 18  2  0
 36 37  1  0
M  END
>  <ACTIVITY>  (106) 
5.17

$$$$

     RDKit          2D

 44 44  0  0  0  0  0  0  0  0999 V2000
    1.2990   -0.7500    0.0000 N   0  0  0  0  0  0  0  0  0  0  0  0
    1.2990    0.7500    0.0000 C   0  0  0  0  0  0  0  0  0  0  0  0
    0.0000    1.5000    0.0000 C   0  0  0  0  0  0  0  0  0  0  0  0
   -1.2990    0.7500    0.0000 N   0  0  0  0  0  0  0  0  0  0  0  0
   -1.2990   -0.7500    0.0000 C   0  0  0  0  0  0  0  0  0  0  0  0
    0.0000   -1.5000    0.0000 C   0  0  0  0  0  0  0  0  0  0  0  0
   -2.5987    1.5004    0.0000 C   0  0  0  0  0  0  0  0  0  0  0  0
   -2.6012    3.0004    0.0000 C   0  0  0  0  0  0  0  0  0  0  0  0
   -3.9014    3.7484    0.0000 C   0  0  0  0  0  0  0  0  0  0  0  0
   -5.1993    2.9963    0.0000 C   0  0  0  0  0  0  0  0  0  0  0  0
   -5.1969    1.4963    0.0000 C   0  0  0  0  0  0  0  0  0  0  0  0
   -3.8967    0.7484    0.0000 C   0  0  0  0  0  0  0  0  0  0  0  0
   -1.5630    3.6021    0.0000 Cl  0  0  0  0  0  0  0  0  0  0  0  0
   -3.9034    4.9484    0.0000 Cl  0  0  0  0  0  0  0  0  0  0  0  0
    5.1873   -7.5117    0.0000 C   0  0  0  0  0  0  0  0  0  0  0  0
    5.1894   -6.0109    0.0000 C   0  0  0  0  0  0  0  0  0  0  0  0
    3.8912   -5.2578    0.0000 N   0  0  0  0  0  0  0  0  0  0  0  0
    6.2297   -5.4127    0.0000 O   0  0  0  0  0  0  0  0  0  0  0  0
    4.4293   -9.7955    0.0000 C   0  0  0  0  0  0  0  0  0  0  0  0
    3.9707   -8.3673    0.0000 N   0  0  0  0  0  0  0  0  0  0  0  0
    6.3978   -8.3758    0.0000 C   0  0  0  0  0  0  0  0  0  0  0  0
    5.9293   -9.8007    0.0000 N   0  0  0  0  0  0  0  0  0  0  0  0
    6.8072  -11.0179    0.0000 C   0  0  0  0  0  0  0  0  0  0  0  0
    7.5381   -8.0021    0.0000 C   0  0  0  0  0  0  0  0  0  0  0  0
    3.5430  -11.0066    0.0000 C   0  0  0  0  0  0  0  0  0  0  0  0
    3.8933   -3.7570    0.0000 C   0  0  0  0  0  0  0  0  0  0  0  0
    2.5951   -3.0039    0.0000 C   0  0  0  0  0  0  0  0  0  0  0  0
    2.5973   -1.5031    0.0000 C   0  0  0  0  0  0  0  0  0  0  0  0
    6.2979  -12.4235    0.0000 C   0  0  0  0  0  0  0  0  0  0  0  0
    7.2644  -13.5706    0.0000 C   0  0  0  0  0  0  0  0  0  0  0  0
    8.7411  -13.3071    0.0000 C   0  0  0  0  0  0  0  0  0  0  0  0
    9.2512  -11.8966    0.0000 C   0  0  0  0  0  0  0  0  0  0  0  0
    8.2847  -10.7495    0.0000 C   0  0  0  0  0  0  0  0  0  0  0  0
    9.7105  -14.4529    0.0000 O   0  0  0  0  0  0  0  0  0  0  0  0
   10.8915  -14.2404    0.0000 C   0  0  0  0  0  0  0  0  0  0  0  0
    2.0488  -10.9565    0.0000 C   0  0  0  0  0  0  0  0  0  0  0  0
    1.2565  -12.2302    0.0000 C   0  0  0  0  0  0  0  0  0  0  0  0
    1.9634  -13.5532    0.0000 C   0  0  0  0  0  0  0  0  0  0  0  0
    3.4626  -13.6025    0.0000 C   0  0  0  0  0  0  0  0  0  0  0  0
    4.2549  -12.3288    0.0000 C   0  0  0  0  0  0  0  0  0  0  0  0
   21.1876   -4.6019    0.0000 Cl  0  0  0  0  0  0  0  0  0  0  0  0
   18.6876   -4.6019    0.0000 Cl  0  0  0  0  0  0  0  0  0  0  0  0
   16.1876   -4.6019    0.0000 Cl  0  0  0  0  0  0  0  0  0  0  0  0
   13.6876   -4.6019    0.0000 Cl  0  0  0  0  0  0  0  0  0  0  0  0
  3  4  1  0
 10 11  1  0
 20 15  1  0
 15 21  2  0
 21 22  1  0
 22 19  1  0
  4  5  1  0
 22 23  1  0
 11 12  2  0
 21 24  1  0
 12  7  1  0
 19 25  1  0
  4  7  1  0
 17 26  1  0
  5  6  1  0
 26 27  1  0
  8 13  1  0
 27 28  1  0
 28  1  1  0
  1  2  1  0
 23 29  2  0
  9 14  1  0
 29 30  1  0
 30 31  2  0
  7  8  2  0
 31 32  1  0
 15 16  1  0
 32 33  2  0
 33 23  1  0
  1  6  1  0
 31 34  1  0
 16 17  1  0
 34 35  1  0
  8  9  1  0
 25 36  2  0
 16 18  2  0
 36 37  1  0
 19 20  2  0
 37 38  2  0
  2  3  1  0
 38 39  1  0
  9 10  2  0
 39 40  2  0
 40 25  1  0
M  END
>  <ACTIVITY>  (107) 
13

$$$$

     RDKit          2D

 38 37  0  0  0  0  0  0  0  0999 V2000
    5.1945   -3.0045    0.0000 N   0  0  0  0  0  0  0  0  0  0  0  0
    5.1969   -1.5045    0.0000 C   0  0  0  0  0  0  0  0  0  0  0  0
    3.8991   -0.7525    0.0000 C   0  0  0  0  0  0  0  0  0  0  0  0
    2.5987   -1.5004    0.0000 N   0  0  0  0  0  0  0  0  0  0  0  0
    2.5965   -3.0004    0.0000 C   0  0  0  0  0  0  0  0  0  0  0  0
    3.8943   -3.7525    0.0000 C   0  0  0  0  0  0  0  0  0  0  0  0
    1.2990   -0.7500    0.0000 C   0  0  0  0  0  0  0  0  0  0  0  0
    0.0000   -1.5000    0.0000 C   0  0  0  0  0  0  0  0  0  0  0  0
   -1.2990   -0.7500    0.0000 C   0  0  0  0  0  0  0  0  0  0  0  0
   -1.2990    0.7500    0.0000 C   0  0  0  0  0  0  0  0  0  0  0  0
    0.0000    1.5000    0.0000 C   0  0  0  0  0  0  0  0  0  0  0  0
    1.2990    0.7500    0.0000 C   0  0  0  0  0  0  0  0  0  0  0  0
    0.0000   -2.7000    0.0000 Cl  0  0  0  0  0  0  0  0  0  0  0  0
   -2.3383   -1.3500    0.0000 Cl  0  0  0  0  0  0  0  0  0  0  0  0
    9.0720   -9.7724    0.0000 C   0  0  0  0  0  0  0  0  0  0  0  0
    9.0765   -8.2716    0.0000 C   0  0  0  0  0  0  0  0  0  0  0  0
    7.7795   -7.5165    0.0000 N   0  0  0  0  0  0  0  0  0  0  0  0
   10.1178   -7.6751    0.0000 O   0  0  0  0  0  0  0  0  0  0  0  0
    8.3104  -12.0550    0.0000 C   0  0  0  0  0  0  0  0  0  0  0  0
    7.8541  -10.6261    0.0000 N   0  0  0  0  0  0  0  0  0  0  0  0
   10.2812  -10.6384    0.0000 C   0  0  0  0  0  0  0  0  0  0  0  0
    9.8104  -12.0626    0.0000 N   0  0  0  0  0  0  0  0  0  0  0  0
   10.6864  -13.2812    0.0000 C   0  0  0  0  0  0  0  0  0  0  0  0
   11.4221  -10.2666    0.0000 C   0  0  0  0  0  0  0  0  0  0  0  0
    7.6002  -13.0223    0.0000 C   0  0  0  0  0  0  0  0  0  0  0  0
    7.7840   -6.0157    0.0000 C   0  0  0  0  0  0  0  0  0  0  0  0
    6.4870   -5.2605    0.0000 C   0  0  0  0  0  0  0  0  0  0  0  0
    6.4915   -3.7597    0.0000 C   0  0  0  0  0  0  0  0  0  0  0  0
   10.1748  -14.6860    0.0000 C   0  0  0  0  0  0  0  0  0  0  0  0
   11.1395  -15.8346    0.0000 C   0  0  0  0  0  0  0  0  0  0  0  0
   12.6166  -15.5735    0.0000 C   0  0  0  0  0  0  0  0  0  0  0  0
   13.1290  -14.1637    0.0000 C   0  0  0  0  0  0  0  0  0  0  0  0
   12.1643  -13.0151    0.0000 C   0  0  0  0  0  0  0  0  0  0  0  0
    8.9931  -14.8945    0.0000 F   0  0  0  0  0  0  0  0  0  0  0  0
   23.1290   -7.1673    0.0000 Cl  0  0  0  0  0  0  0  0  0  0  0  0
   20.6290   -7.1673    0.0000 Cl  0  0  0  0  0  0  0  0  0  0  0  0
   18.1290   -7.1673    0.0000 Cl  0  0  0  0  0  0  0  0  0  0  0  0
   15.6290   -7.1673    0.0000 Cl  0  0  0  0  0  0  0  0  0  0  0  0
 16 17  1  0
  8  9  2  0
 16 18  2  0
 19 20  2  0
  2  3  1  0
  9 10  1  0
  3  4  1  0
 10 11  2  0
 20 15  1  0
 15 21  2  0
 21 22  1  0
 22 19  1  0
  4  5  1  0
 22 23  1  0
 11 12  1  0
 21 24  1  0
 12  7  2  0
 19 25  1  0
  4  7  1  0
 17 26  1  0
  5  6  1  0
 26 27  1  0
  8 13  1  0
 27 28  1  0
 28  1  1  0
  1  2  1  0
 23 29  2  0
  9 14  1  0
 29 30  1  0
 30 31  2  0
  7  8  1  0
 31 32  1  0
 15 16  1  0
 32 33  2  0
 33 23  1  0
  1  6  1  0
 29 34  1  0
M  END
>  <ACTIVITY>  (108) 
16.8

$$$$

     RDKit          2D

 40 39  0  0  0  0  0  0  0  0999 V2000
    1.2990   -0.7500    0.0000 N   0  0  0  0  0  0  0  0  0  0  0  0
    1.2990    0.7500    0.0000 C   0  0  0  0  0  0  0  0  0  0  0  0
    0.0000    1.5000    0.0000 C   0  0  0  0  0  0  0  0  0  0  0  0
   -1.2990    0.7500    0.0000 N   0  0  0  0  0  0  0  0  0  0  0  0
   -1.2990   -0.7500    0.0000 C   0  0  0  0  0  0  0  0  0  0  0  0
    0.0000   -1.5000    0.0000 C   0  0  0  0  0  0  0  0  0  0  0  0
   -2.5987    1.5004    0.0000 C   0  0  0  0  0  0  0  0  0  0  0  0
   -2.6012    3.0004    0.0000 C   0  0  0  0  0  0  0  0  0  0  0  0
   -3.9014    3.7484    0.0000 C   0  0  0  0  0  0  0  0  0  0  0  0
   -5.1993    2.9963    0.0000 C   0  0  0  0  0  0  0  0  0  0  0  0
   -5.1969    1.4963    0.0000 C   0  0  0  0  0  0  0  0  0  0  0  0
   -3.8967    0.7484    0.0000 C   0  0  0  0  0  0  0  0  0  0  0  0
   -1.5630    3.6021    0.0000 Cl  0  0  0  0  0  0  0  0  0  0  0  0
   -3.9034    4.9484    0.0000 Cl  0  0  0  0  0  0  0  0  0  0  0  0
    5.1873   -7.5117    0.0000 C   0  0  0  0  0  0  0  0  0  0  0  0
    5.1894   -6.0109    0.0000 C   0  0  0  0  0  0  0  0  0  0  0  0
    3.8912   -5.2578    0.0000 N   0  0  0  0  0  0  0  0  0  0  0  0
    6.2297   -5.4127    0.0000 O   0  0  0  0  0  0  0  0  0  0  0  0
    4.4293   -9.7955    0.0000 C   0  0  0  0  0  0  0  0  0  0  0  0
    3.9707   -8.3673    0.0000 N   0  0  0  0  0  0  0  0  0  0  0  0
    6.3978   -8.3758    0.0000 C   0  0  0  0  0  0  0  0  0  0  0  0
    5.9293   -9.8007    0.0000 N   0  0  0  0  0  0  0  0  0  0  0  0
    6.8072  -11.0179    0.0000 C   0  0  0  0  0  0  0  0  0  0  0  0
    7.5381   -8.0021    0.0000 C   0  0  0  0  0  0  0  0  0  0  0  0
    3.5419  -11.0027    0.0000 C   0  0  0  0  0  0  0  0  0  0  0  0
    3.8933   -3.7570    0.0000 C   0  0  0  0  0  0  0  0  0  0  0  0
    2.5951   -3.0039    0.0000 C   0  0  0  0  0  0  0  0  0  0  0  0
    2.5973   -1.5031    0.0000 C   0  0  0  0  0  0  0  0  0  0  0  0
    6.2979  -12.4235    0.0000 C   0  0  0  0  0  0  0  0  0  0  0  0
    7.2644  -13.5706    0.0000 C   0  0  0  0  0  0  0  0  0  0  0  0
    8.7411  -13.3071    0.0000 C   0  0  0  0  0  0  0  0  0  0  0  0
    9.2512  -11.8966    0.0000 C   0  0  0  0  0  0  0  0  0  0  0  0
    8.2847  -10.7495    0.0000 C   0  0  0  0  0  0  0  0  0  0  0  0
    5.1165  -12.6339    0.0000 F   0  0  0  0  0  0  0  0  0  0  0  0
    2.0501  -10.8385    0.0000 C   0  0  0  0  0  0  0  0  0  0  0  0
    1.3394  -11.8054    0.0000 C   0  0  0  0  0  0  0  0  0  0  0  0
   19.2512   -4.1608    0.0000 Cl  0  0  0  0  0  0  0  0  0  0  0  0
   16.7512   -4.1608    0.0000 Cl  0  0  0  0  0  0  0  0  0  0  0  0
   14.2512   -4.1608    0.0000 Cl  0  0  0  0  0  0  0  0  0  0  0  0
   11.7512   -4.1608    0.0000 Cl  0  0  0  0  0  0  0  0  0  0  0  0
 16 18  2  0
 19 20  2  0
  2  3  1  0
  9 10  2  0
  3  4  1  0
 10 11  1  0
 20 15  1  0
 15 21  2  0
 21 22  1  0
 22 19  1  0
  4  5  1  0
 22 23  1  0
 11 12  2  0
 21 24  1  0
 12  7  1  0
 19 25  1  0
  4  7  1  0
 17 26  1  0
  5  6  1  0
 26 27  1  0
  8 13  1  0
 27 28  1  0
 28  1  1  0
  1  2  1  0
 23 29  2  0
  9 14  1  0
 29 30  1  0
 30 31  2  0
  7  8  2  0
 31 32  1  0
 15 16  1  0
 32 33  2  0
 33 23  1  0
  1  6  1  0
 29 34  1  0
 16 17  1  0
 25 35  1  0
  8  9  1  0
 35 36  1  0
M  END
>  <ACTIVITY>  (109) 
21

$$$$

     RDKit          2D

 43 43  0  0  0  0  0  0  0  0999 V2000
    5.1945   -3.0045    0.0000 N   0  0  0  0  0  0  0  0  0  0  0  0
    5.1969   -1.5045    0.0000 C   0  0  0  0  0  0  0  0  0  0  0  0
    3.8991   -0.7525    0.0000 C   0  0  0  0  0  0  0  0  0  0  0  0
    2.5987   -1.5004    0.0000 N   0  0  0  0  0  0  0  0  0  0  0  0
    2.5965   -3.0004    0.0000 C   0  0  0  0  0  0  0  0  0  0  0  0
    3.8943   -3.7525    0.0000 C   0  0  0  0  0  0  0  0  0  0  0  0
    1.2990   -0.7500    0.0000 C   0  0  0  0  0  0  0  0  0  0  0  0
    0.0000   -1.5000    0.0000 C   0  0  0  0  0  0  0  0  0  0  0  0
   -1.2990   -0.7500    0.0000 C   0  0  0  0  0  0  0  0  0  0  0  0
   -1.2990    0.7500    0.0000 C   0  0  0  0  0  0  0  0  0  0  0  0
    0.0000    1.5000    0.0000 C   0  0  0  0  0  0  0  0  0  0  0  0
    1.2990    0.7500    0.0000 C   0  0  0  0  0  0  0  0  0  0  0  0
    0.0000   -2.7000    0.0000 Cl  0  0  0  0  0  0  0  0  0  0  0  0
   -2.3383   -1.3500    0.0000 Cl  0  0  0  0  0  0  0  0  0  0  0  0
    9.0720   -9.7724    0.0000 C   0  0  0  0  0  0  0  0  0  0  0  0
    9.0765   -8.2716    0.0000 C   0  0  0  0  0  0  0  0  0  0  0  0
    7.7795   -7.5165    0.0000 N   0  0  0  0  0  0  0  0  0  0  0  0
   10.1178   -7.6751    0.0000 O   0  0  0  0  0  0  0  0  0  0  0  0
    8.3104  -12.0550    0.0000 C   0  0  0  0  0  0  0  0  0  0  0  0
    7.8541  -10.6261    0.0000 N   0  0  0  0  0  0  0  0  0  0  0  0
   10.2812  -10.6384    0.0000 C   0  0  0  0  0  0  0  0  0  0  0  0
    9.8104  -12.0626    0.0000 N   0  0  0  0  0  0  0  0  0  0  0  0
   10.6864  -13.2812    0.0000 C   0  0  0  0  0  0  0  0  0  0  0  0
   11.4221  -10.2666    0.0000 C   0  0  0  0  0  0  0  0  0  0  0  0
    7.4222  -13.2647    0.0000 C   0  0  0  0  0  0  0  0  0  0  0  0
    7.7840   -6.0157    0.0000 C   0  0  0  0  0  0  0  0  0  0  0  0
    6.4870   -5.2605    0.0000 C   0  0  0  0  0  0  0  0  0  0  0  0
    6.4915   -3.7597    0.0000 C   0  0  0  0  0  0  0  0  0  0  0  0
   10.1748  -14.6860    0.0000 C   0  0  0  0  0  0  0  0  0  0  0  0
   11.1395  -15.8346    0.0000 C   0  0  0  0  0  0  0  0  0  0  0  0
   12.6166  -15.5735    0.0000 C   0  0  0  0  0  0  0  0  0  0  0  0
   13.1290  -14.1637    0.0000 C   0  0  0  0  0  0  0  0  0  0  0  0
   12.1643  -13.0151    0.0000 C   0  0  0  0  0  0  0  0  0  0  0  0
    8.9931  -14.8945    0.0000 F   0  0  0  0  0  0  0  0  0  0  0  0
    5.9281  -13.2123    0.0000 C   0  0  0  0  0  0  0  0  0  0  0  0
    5.1338  -14.4847    0.0000 C   0  0  0  0  0  0  0  0  0  0  0  0
    5.8386  -15.8088    0.0000 C   0  0  0  0  0  0  0  0  0  0  0  0
    7.3377  -15.8605    0.0000 C   0  0  0  0  0  0  0  0  0  0  0  0
    8.1320  -14.5881    0.0000 C   0  0  0  0  0  0  0  0  0  0  0  0
   23.1290   -7.1802    0.0000 Cl  0  0  0  0  0  0  0  0  0  0  0  0
   20.6290   -7.1802    0.0000 Cl  0  0  0  0  0  0  0  0  0  0  0  0
   18.1290   -7.1802    0.0000 Cl  0  0  0  0  0  0  0  0  0  0  0  0
   15.6290   -7.1802    0.0000 Cl  0  0  0  0  0  0  0  0  0  0  0  0
  9 10  2  0
  3  4  1  0
 10 11  1  0
 20 15  1  0
 15 21  2  0
 21 22  1  0
 22 19  1  0
  4  5  1  0
 22 23  1  0
 11 12  2  0
 21 24  1  0
 12  7  1  0
 19 25  1  0
  4  7  1  0
 17 26  1  0
  5  6  1  0
 26 27  1  0
  8 13  1  0
 27 28  1  0
 28  1  1  0
  1  2  1  0
 23 29  2  0
  9 14  1  0
 29 30  1  0
 30 31  2  0
  7  8  2  0
 31 32  1  0
 15 16  1  0
 32 33  2  0
 33 23  1  0
  1  6  1  0
 29 34  1  0
 16 17  1  0
 25 35  2  0
  8  9  1  0
 35 36  1  0
 16 18  2  0
 36 37  2  0
 19 20  2  0
 37 38  1  0
  2  3  1  0
 38 39  2  0
 39 25  1  0
M  END
>  <ACTIVITY>  (110) 
19.5

$$$$

     RDKit          2D

 39 37  0  0  0  0  0  0  0  0999 V2000
    5.1945   -3.0045    0.0000 N   0  0  0  0  0  0  0  0  0  0  0  0
    5.1969   -1.5045    0.0000 C   0  0  0  0  0  0  0  0  0  0  0  0
    3.8991   -0.7525    0.0000 C   0  0  0  0  0  0  0  0  0  0  0  0
    2.5987   -1.5004    0.0000 N   0  0  0  0  0  0  0  0  0  0  0  0
    2.5965   -3.0004    0.0000 C   0  0  0  0  0  0  0  0  0  0  0  0
    3.8943   -3.7525    0.0000 C   0  0  0  0  0  0  0  0  0  0  0  0
    1.2990   -0.7500    0.0000 C   0  0  0  0  0  0  0  0  0  0  0  0
    0.0000   -1.5000    0.0000 C   0  0  0  0  0  0  0  0  0  0  0  0
   -1.2990   -0.7500    0.0000 C   0  0  0  0  0  0  0  0  0  0  0  0
   -1.2990    0.7500    0.0000 C   0  0  0  0  0  0  0  0  0  0  0  0
    0.0000    1.5000    0.0000 C   0  0  0  0  0  0  0  0  0  0  0  0
    1.2990    0.7500    0.0000 C   0  0  0  0  0  0  0  0  0  0  0  0
    0.0000   -2.7000    0.0000 Cl  0  0  0  0  0  0  0  0  0  0  0  0
   -2.3383   -1.3500    0.0000 Cl  0  0  0  0  0  0  0  0  0  0  0  0
    9.0720   -9.7724    0.0000 C   0  0  0  0  0  0  0  0  0  0  0  0
    9.0765   -8.2716    0.0000 C   0  0  0  0  0  0  0  0  0  0  0  0
    7.7795   -7.5165    0.0000 N   0  0  0  0  0  0  0  0  0  0  0  0
   10.1178   -7.6751    0.0000 O   0  0  0  0  0  0  0  0  0  0  0  0
    8.3104  -12.0550    0.0000 C   0  0  0  0  0  0  0  0  0  0  0  0
    7.8541  -10.6261    0.0000 N   0  0  0  0  0  0  0  0  0  0  0  0
   10.2812  -10.6384    0.0000 C   0  0  0  0  0  0  0  0  0  0  0  0
    9.8104  -12.0626    0.0000 N   0  0  0  0  0  0  0  0  0  0  0  0
   10.6864  -13.2812    0.0000 C   0  0  0  0  0  0  0  0  0  0  0  0
   11.4221  -10.2666    0.0000 C   0  0  0  0  0  0  0  0  0  0  0  0
    7.6002  -13.0223    0.0000 C   0  0  0  0  0  0  0  0  0  0  0  0
    7.7840   -6.0157    0.0000 C   0  0  0  0  0  0  0  0  0  0  0  0
    6.4870   -5.2605    0.0000 C   0  0  0  0  0  0  0  0  0  0  0  0
    6.4915   -3.7597    0.0000 C   0  0  0  0  0  0  0  0  0  0  0  0
   10.1748  -14.6860    0.0000 C   0  0  0  0  0  0  0  0  0  0  0  0
   11.1395  -15.8346    0.0000 C   0  0  0  0  0  0  0  0  0  0  0  0
   12.6166  -15.5735    0.0000 C   0  0  0  0  0  0  0  0  0  0  0  0
   13.1290  -14.1637    0.0000 C   0  0  0  0  0  0  0  0  0  0  0  0
   12.1643  -13.0151    0.0000 C   0  0  0  0  0  0  0  0  0  0  0  0
    8.9931  -14.8945    0.0000 Cl  0  0  0  0  0  0  0  0  0  0  0  0
   25.6290   -7.1673    0.0000 Cl  0  0  0  0  0  0  0  0  0  0  0  0
   23.1290   -7.1673    0.0000 Cl  0  0  0  0  0  0  0  0  0  0  0  0
   20.6290   -7.1673    0.0000 Cl  0  0  0  0  0  0  0  0  0  0  0  0
   18.1290   -7.1673    0.0000 Cl  0  0  0  0  0  0  0  0  0  0  0  0
   15.6290   -7.1673    0.0000 Cl  0  0  0  0  0  0  0  0  0  0  0  0
 16 17  1  0
  8  9  2  0
 16 18  2  0
 19 20  2  0
  2  3  1  0
  9 10  1  0
  3  4  1  0
 10 11  2  0
 20 15  1  0
 15 21  2  0
 21 22  1  0
 22 19  1  0
  4  5  1  0
 22 23  1  0
 11 12  1  0
 21 24  1  0
 12  7  2  0
 19 25  1  0
  4  7  1  0
 17 26  1  0
  5  6  1  0
 26 27  1  0
  8 13  1  0
 27 28  1  0
 28  1  1  0
  1  2  1  0
 23 29  2  0
  9 14  1  0
 29 30  1  0
 30 31  2  0
  7  8  1  0
 31 32  1  0
 15 16  1  0
 32 33  2  0
 33 23  1  0
  1  6  1  0
 29 34  1  0
M  END
>  <ACTIVITY>  (111) 
30

$$$$

     RDKit          2D

 40 38  0  0  0  0  0  0  0  0999 V2000
    5.1945   -3.0045    0.0000 N   0  0  0  0  0  0  0  0  0  0  0  0
    5.1969   -1.5045    0.0000 C   0  0  0  0  0  0  0  0  0  0  0  0
    3.8991   -0.7525    0.0000 C   0  0  0  0  0  0  0  0  0  0  0  0
    2.5987   -1.5004    0.0000 N   0  0  0  0  0  0  0  0  0  0  0  0
    2.5965   -3.0004    0.0000 C   0  0  0  0  0  0  0  0  0  0  0  0
    3.8943   -3.7525    0.0000 C   0  0  0  0  0  0  0  0  0  0  0  0
    1.2990   -0.7500    0.0000 C   0  0  0  0  0  0  0  0  0  0  0  0
    0.0000   -1.5000    0.0000 C   0  0  0  0  0  0  0  0  0  0  0  0
   -1.2990   -0.7500    0.0000 C   0  0  0  0  0  0  0  0  0  0  0  0
   -1.2990    0.7500    0.0000 C   0  0  0  0  0  0  0  0  0  0  0  0
    0.0000    1.5000    0.0000 C   0  0  0  0  0  0  0  0  0  0  0  0
    1.2990    0.7500    0.0000 C   0  0  0  0  0  0  0  0  0  0  0  0
    0.0000   -2.7000    0.0000 Cl  0  0  0  0  0  0  0  0  0  0  0  0
   -2.3383   -1.3500    0.0000 Cl  0  0  0  0  0  0  0  0  0  0  0  0
    9.0720   -9.7724    0.0000 C   0  0  0  0  0  0  0  0  0  0  0  0
    9.0765   -8.2716    0.0000 C   0  0  0  0  0  0  0  0  0  0  0  0
    7.7795   -7.5165    0.0000 N   0  0  0  0  0  0  0  0  0  0  0  0
   10.1178   -7.6751    0.0000 O   0  0  0  0  0  0  0  0  0  0  0  0
    9.8104  -12.0626    0.0000 C   0  0  0  0  0  0  0  0  0  0  0  0
   10.2812  -10.6384    0.0000 N   0  0  0  0  0  0  0  0  0  0  0  0
    7.8541  -10.6261    0.0000 C   0  0  0  0  0  0  0  0  0  0  0  0
    8.3104  -12.0550    0.0000 N   0  0  0  0  0  0  0  0  0  0  0  0
    7.4222  -13.2647    0.0000 C   0  0  0  0  0  0  0  0  0  0  0  0
   10.6874  -13.2773    0.0000 C   0  0  0  0  0  0  0  0  0  0  0  0
    7.7840   -6.0157    0.0000 C   0  0  0  0  0  0  0  0  0  0  0  0
    6.4870   -5.2605    0.0000 C   0  0  0  0  0  0  0  0  0  0  0  0
    6.4915   -3.7597    0.0000 C   0  0  0  0  0  0  0  0  0  0  0  0
    7.9195  -14.6746    0.0000 C   0  0  0  0  0  0  0  0  0  0  0  0
    6.9432  -15.8134    0.0000 C   0  0  0  0  0  0  0  0  0  0  0  0
    5.4688  -15.5373    0.0000 C   0  0  0  0  0  0  0  0  0  0  0  0
    4.9707  -14.1224    0.0000 C   0  0  0  0  0  0  0  0  0  0  0  0
    5.9470  -12.9836    0.0000 C   0  0  0  0  0  0  0  0  0  0  0  0
    4.6878  -16.4484    0.0000 Cl  0  0  0  0  0  0  0  0  0  0  0  0
   12.1806  -13.1259    0.0000 C   0  0  0  0  0  0  0  0  0  0  0  0
   12.8830  -14.0988    0.0000 C   0  0  0  0  0  0  0  0  0  0  0  0
   25.5591   -7.5884    0.0000 Cl  0  0  0  0  0  0  0  0  0  0  0  0
   23.0591   -7.5884    0.0000 Cl  0  0  0  0  0  0  0  0  0  0  0  0
   20.5591   -7.5884    0.0000 Cl  0  0  0  0  0  0  0  0  0  0  0  0
   18.0591   -7.5884    0.0000 Cl  0  0  0  0  0  0  0  0  0  0  0  0
   15.5591   -7.5884    0.0000 Cl  0  0  0  0  0  0  0  0  0  0  0  0
  8  9  2  0
 16 18  2  0
 19 20  2  0
  2  3  1  0
  9 10  1  0
  3  4  1  0
 10 11  2  0
 20 15  1  0
 15 21  2  0
 21 22  1  0
 22 19  1  0
  4  5  1  0
 22 23  1  0
 11 12  1  0
 19 24  1  0
 12  7  2  0
 17 25  1  0
  4  7  1  0
 25 26  1  0
  5  6  1  0
 26 27  1  0
 27  1  1  0
  8 13  1  0
 23 28  2  0
  1  2  1  0
 28 29  1  0
  9 14  1  0
 29 30  2  0
 30 31  1  0
  7  8  1  0
 31 32  2  0
 32 23  1  0
 15 16  1  0
 30 33  1  0
  1  6  1  0
 24 34  1  0
 16 17  1  0
 34 35  1  0
M  END
>  <ACTIVITY>  (112) 
70.9

$$$$
