
     RDKit          2D

 17 19  0  0  0  0  0  0  0  0999 V2000
    4.2648   -0.6794    0.0000 N   0  0  0  0  0  0  0  0  0  0  0  0
    3.5504    0.5581    0.0000 N   0  0  0  0  0  0  0  0  0  0  0  0
    4.2648    1.7956    0.0000 N   0  0  0  0  0  0  0  0  0  0  0  0
    4.9793    0.5581    0.0000 C   0  0  0  0  0  0  0  0  0  0  0  0
    4.2648    0.1456    0.0000 C   0  0  0  0  0  0  0  0  0  0  0  0
    4.9793    1.3831    0.0000 C   0  0  0  0  0  0  0  0  0  0  0  0
    5.6938    0.1456    0.0000 C   0  0  0  0  0  0  0  0  0  0  0  0
    5.6938    1.7956    0.0000 C   0  0  0  0  0  0  0  0  0  0  0  0
    3.5504   -1.0919    0.0000 C   0  0  0  0  0  0  0  0  0  0  0  0
    3.5504    1.3831    0.0000 C   0  0  0  0  0  0  0  0  0  0  0  0
    6.4083    0.5581    0.0000 C   0  0  0  0  0  0  0  0  0  0  0  0
    6.4083    1.3831    0.0000 C   0  0  0  0  0  0  0  0  0  0  0  0
    3.5504   -1.9169    0.0000 C   0  0  0  0  0  0  0  0  0  0  0  0
    2.8359   -0.6794    0.0000 C   0  0  0  0  0  0  0  0  0  0  0  0
    2.8359   -2.3294    0.0000 C   0  0  0  0  0  0  0  0  0  0  0  0
    2.1214   -1.0919    0.0000 C   0  0  0  0  0  0  0  0  0  0  0  0
    2.1214   -1.9169    0.0000 C   0  0  0  0  0  0  0  0  0  0  0  0
  1  5  1  0
  1  9  1  0
  2  5  2  0
  2 10  1  0
  3  6  1  0
  3 10  2  0
  4  5  1  0
  4  6  2  0
  4  7  1  0
  6  8  1  0
  7 11  2  0
  8 12  2  0
  9 13  2  0
  9 14  1  0
 11 12  1  0
 13 15  1  0
 14 16  2  0
 15 17  2  0
 16 17  1  0
M  END
>  <ACTIVITY>  (1) 
346.74

$$$$

     RDKit          2D

 27 30  0  0  0  0  0  0  0  0999 V2000
    3.9152  -22.7416    0.0000 N   0  0  0  0  0  0  0  0  0  0  0  0
    3.9141  -23.5690    0.0000 C   0  0  0  0  0  0  0  0  0  0  0  0
    4.6289  -23.9819    0.0000 C   0  0  0  0  0  0  0  0  0  0  0  0
    4.6271  -22.3289    0.0000 C   0  0  0  0  0  0  0  0  0  0  0  0
    5.3425  -22.7380    0.0000 C   0  0  0  0  0  0  0  0  0  0  0  0
    5.3432  -23.5648    0.0000 C   0  0  0  0  0  0  0  0  0  0  0  0
    6.0585  -23.9758    0.0000 N   0  0  0  0  0  0  0  0  0  0  0  0
    6.7736  -23.5610    0.0000 C   0  0  0  0  0  0  0  0  0  0  0  0
    6.0529  -22.3238    0.0000 C   0  0  0  0  0  0  0  0  0  0  0  0
    6.0485  -21.4989    0.0000 N   0  0  0  0  0  0  0  0  0  0  0  0
    6.7608  -21.0826    0.0000 C   0  0  0  0  0  0  0  0  0  0  0  0
    7.4728  -21.4947    0.0000 C   0  0  0  0  0  0  0  0  0  0  0  0
    8.1846  -21.0791    0.0000 C   0  0  0  0  0  0  0  0  0  0  0  0
    8.1807  -20.2532    0.0000 C   0  0  0  0  0  0  0  0  0  0  0  0
    7.4590  -19.8447    0.0000 C   0  0  0  0  0  0  0  0  0  0  0  0
    6.7502  -20.2627    0.0000 C   0  0  0  0  0  0  0  0  0  0  0  0
    7.4744  -22.3197    0.0000 N   0  0  0  0  0  0  0  0  0  0  0  0
    6.7607  -22.7335    0.0000 N   0  0  0  0  0  0  0  0  0  0  0  0
    8.1897  -22.7308    0.0000 C   0  0  0  0  0  0  0  0  0  0  0  0
    8.1912  -23.5558    0.0000 C   0  0  0  0  0  0  0  0  0  0  0  0
    8.9065  -23.9670    0.0000 C   0  0  0  0  0  0  0  0  0  0  0  0
    8.9080  -24.7920    0.0000 N   0  0  0  0  0  0  0  0  0  0  0  0
    8.9011  -21.4881    0.0000 C   0  0  0  0  0  0  0  0  0  0  0  0
    8.2452  -25.2759    0.0000 C   0  0  0  0  0  0  0  0  0  0  0  0
    8.5016  -26.0600    0.0000 N   0  0  0  0  0  0  0  0  0  0  0  0
    9.3267  -26.0585    0.0000 C   0  0  0  0  0  0  0  0  0  0  0  0
    9.5800  -25.2733    0.0000 C   0  0  0  0  0  0  0  0  0  0  0  0
  5  6  1  0
 12 13  2  0
  3  6  2  0
 13 14  1  0
  6  7  1  0
 14 15  2  0
  1  2  2  0
 15 16  1  0
 16 11  2  0
  7  8  2  0
 12 17  1  0
  8 18  1  0
  5  4  2  0
 17 19  1  0
 18  9  2  0
 19 20  1  0
  9  5  1  0
 20 21  1  0
  4  1  1  0
 21 22  1  0
  9 10  1  0
 13 23  1  0
 22 24  1  0
 10 11  1  0
  2  3  1  0
 11 12  1  0
 24 25  2  0
 25 26  1  0
 26 27  2  0
 27 22  1  0
M  END
>  <ACTIVITY>  (2) 
3.55

$$$$

     RDKit          2D

 29 32  0  0  0  0  0  0  0  0999 V2000
   -5.0181  -22.1541    0.0000 N   0  0  0  0  0  0  0  0  0  0  0  0
   -5.0193  -22.9815    0.0000 C   0  0  0  0  0  0  0  0  0  0  0  0
   -4.3044  -23.3944    0.0000 C   0  0  0  0  0  0  0  0  0  0  0  0
   -4.3062  -21.7414    0.0000 C   0  0  0  0  0  0  0  0  0  0  0  0
   -3.5909  -22.1505    0.0000 C   0  0  0  0  0  0  0  0  0  0  0  0
   -3.5901  -22.9773    0.0000 C   0  0  0  0  0  0  0  0  0  0  0  0
   -2.8748  -23.3883    0.0000 N   0  0  0  0  0  0  0  0  0  0  0  0
   -2.1598  -22.9735    0.0000 C   0  0  0  0  0  0  0  0  0  0  0  0
   -2.8804  -21.7363    0.0000 C   0  0  0  0  0  0  0  0  0  0  0  0
   -2.8848  -20.9114    0.0000 N   0  0  0  0  0  0  0  0  0  0  0  0
   -2.1725  -20.4951    0.0000 C   0  0  0  0  0  0  0  0  0  0  0  0
   -1.4605  -20.9072    0.0000 C   0  0  0  0  0  0  0  0  0  0  0  0
   -0.7487  -20.4916    0.0000 C   0  0  0  0  0  0  0  0  0  0  0  0
   -0.7526  -19.6657    0.0000 C   0  0  0  0  0  0  0  0  0  0  0  0
   -1.4743  -19.2572    0.0000 C   0  0  0  0  0  0  0  0  0  0  0  0
   -2.1831  -19.6752    0.0000 C   0  0  0  0  0  0  0  0  0  0  0  0
   -1.4589  -21.7322    0.0000 N   0  0  0  0  0  0  0  0  0  0  0  0
   -2.1726  -22.1460    0.0000 N   0  0  0  0  0  0  0  0  0  0  0  0
   -0.7437  -22.1433    0.0000 C   0  0  0  0  0  0  0  0  0  0  0  0
   -0.7421  -22.9683    0.0000 C   0  0  0  0  0  0  0  0  0  0  0  0
   -0.0269  -23.3795    0.0000 C   0  0  0  0  0  0  0  0  0  0  0  0
   -0.0253  -24.2045    0.0000 N   0  0  0  0  0  0  0  0  0  0  0  0
   -0.7426  -24.6133    0.0000 C   0  0  0  0  0  0  0  0  0  0  0  0
   -0.7430  -25.4346    0.0000 C   0  0  0  0  0  0  0  0  0  0  0  0
   -0.0296  -25.8497    0.0000 N   0  0  0  0  0  0  0  0  0  0  0  0
    0.6859  -25.4370    0.0000 C   0  0  0  0  0  0  0  0  0  0  0  0
    0.6880  -24.6094    0.0000 C   0  0  0  0  0  0  0  0  0  0  0  0
   -0.0323  -20.9006    0.0000 C   0  0  0  0  0  0  0  0  0  0  0  0
   -0.0312  -26.6747    0.0000 C   0  0  0  0  0  0  0  0  0  0  0  0
  3  6  2  0
 13 14  2  0
  6  7  1  0
 14 15  1  0
  1  2  2  0
 15 16  2  0
 16 11  1  0
  7  8  2  0
 12 17  1  0
  8 18  1  0
  5  4  2  0
 17 19  1  0
 18  9  2  0
 19 20  1  0
  9  5  1  0
 20 21  1  0
  4  1  1  0
 21 22  1  0
 22 23  1  0
  9 10  1  0
 10 11  1  0
  2  3  1  0
 11 12  2  0
 22 27  1  0
 23 24  1  0
 24 25  1  0
 25 26  1  0
 26 27  1  0
  5  6  1  0
 13 28  1  0
 12 13  1  0
 25 29  1  0
M  END
>  <ACTIVITY>  (3) 
5.62

$$$$

     RDKit          2D

 28 31  0  0  0  0  0  0  0  0999 V2000
   11.1618  -15.7843    0.0000 N   0  0  0  0  0  0  0  0  0  0  0  0
   11.1606  -16.6118    0.0000 C   0  0  0  0  0  0  0  0  0  0  0  0
   11.8755  -17.0246    0.0000 C   0  0  0  0  0  0  0  0  0  0  0  0
   11.8737  -15.3715    0.0000 C   0  0  0  0  0  0  0  0  0  0  0  0
   12.5891  -15.7807    0.0000 C   0  0  0  0  0  0  0  0  0  0  0  0
   12.5899  -16.6076    0.0000 C   0  0  0  0  0  0  0  0  0  0  0  0
   13.3053  -17.0186    0.0000 N   0  0  0  0  0  0  0  0  0  0  0  0
   14.0203  -16.6038    0.0000 C   0  0  0  0  0  0  0  0  0  0  0  0
   13.2996  -15.3665    0.0000 C   0  0  0  0  0  0  0  0  0  0  0  0
   13.2953  -14.5415    0.0000 N   0  0  0  0  0  0  0  0  0  0  0  0
   14.0075  -14.1251    0.0000 C   0  0  0  0  0  0  0  0  0  0  0  0
   14.7197  -14.5374    0.0000 C   0  0  0  0  0  0  0  0  0  0  0  0
   15.4315  -14.1217    0.0000 C   0  0  0  0  0  0  0  0  0  0  0  0
   15.4275  -13.2958    0.0000 C   0  0  0  0  0  0  0  0  0  0  0  0
   14.7059  -12.8873    0.0000 C   0  0  0  0  0  0  0  0  0  0  0  0
   13.9969  -13.3052    0.0000 C   0  0  0  0  0  0  0  0  0  0  0  0
   14.7212  -15.3624    0.0000 N   0  0  0  0  0  0  0  0  0  0  0  0
   14.0075  -15.7762    0.0000 N   0  0  0  0  0  0  0  0  0  0  0  0
   15.4365  -15.7735    0.0000 C   0  0  0  0  0  0  0  0  0  0  0  0
   15.4381  -16.5986    0.0000 C   0  0  0  0  0  0  0  0  0  0  0  0
   16.1534  -17.0097    0.0000 C   0  0  0  0  0  0  0  0  0  0  0  0
   16.1550  -17.8348    0.0000 N   0  0  0  0  0  0  0  0  0  0  0  0
   15.4375  -18.2436    0.0000 C   0  0  0  0  0  0  0  0  0  0  0  0
   15.4371  -19.0651    0.0000 C   0  0  0  0  0  0  0  0  0  0  0  0
   16.1506  -19.4801    0.0000 O   0  0  0  0  0  0  0  0  0  0  0  0
   16.8662  -19.0675    0.0000 C   0  0  0  0  0  0  0  0  0  0  0  0
   16.8682  -18.2398    0.0000 C   0  0  0  0  0  0  0  0  0  0  0  0
   16.1480  -14.5308    0.0000 C   0  0  0  0  0  0  0  0  0  0  0  0
 12 13  2  0
  3  6  2  0
 13 14  1  0
  6  7  1  0
 14 15  2  0
  1  2  2  0
 15 16  1  0
 16 11  2  0
  7  8  2  0
 12 17  1  0
  8 18  1  0
  5  4  2  0
 17 19  1  0
 18  9  2  0
 19 20  1  0
  9  5  1  0
 20 21  1  0
  4  1  1  0
 21 22  1  0
 22 23  1  0
  9 10  1  0
 10 11  1  0
  2  3  1  0
 11 12  1  0
 22 27  1  0
 23 24  1  0
 24 25  1  0
 25 26  1  0
 26 27  1  0
  5  6  1  0
 13 28  1  0
M  END
>  <ACTIVITY>  (4) 
9.33

$$$$

     RDKit          2D

 26 28  0  0  0  0  0  0  0  0999 V2000
    3.1027  -16.3458    0.0000 N   0  0  0  0  0  0  0  0  0  0  0  0
    3.1016  -17.1732    0.0000 C   0  0  0  0  0  0  0  0  0  0  0  0
    3.8164  -17.5860    0.0000 C   0  0  0  0  0  0  0  0  0  0  0  0
    3.8146  -15.9330    0.0000 C   0  0  0  0  0  0  0  0  0  0  0  0
    4.5300  -16.3422    0.0000 C   0  0  0  0  0  0  0  0  0  0  0  0
    4.5307  -17.1690    0.0000 C   0  0  0  0  0  0  0  0  0  0  0  0
    5.2460  -17.5800    0.0000 N   0  0  0  0  0  0  0  0  0  0  0  0
    5.9611  -17.1652    0.0000 C   0  0  0  0  0  0  0  0  0  0  0  0
    5.2404  -15.9280    0.0000 C   0  0  0  0  0  0  0  0  0  0  0  0
    5.2360  -15.1030    0.0000 N   0  0  0  0  0  0  0  0  0  0  0  0
    5.9483  -14.6867    0.0000 C   0  0  0  0  0  0  0  0  0  0  0  0
    6.6603  -15.0989    0.0000 C   0  0  0  0  0  0  0  0  0  0  0  0
    7.3721  -14.6833    0.0000 C   0  0  0  0  0  0  0  0  0  0  0  0
    7.3682  -13.8574    0.0000 C   0  0  0  0  0  0  0  0  0  0  0  0
    6.6465  -13.4489    0.0000 C   0  0  0  0  0  0  0  0  0  0  0  0
    5.9377  -13.8668    0.0000 C   0  0  0  0  0  0  0  0  0  0  0  0
    6.6619  -15.9239    0.0000 N   0  0  0  0  0  0  0  0  0  0  0  0
    5.9482  -16.3377    0.0000 N   0  0  0  0  0  0  0  0  0  0  0  0
    7.3772  -16.3350    0.0000 C   0  0  0  0  0  0  0  0  0  0  0  0
    7.3787  -17.1600    0.0000 C   0  0  0  0  0  0  0  0  0  0  0  0
    8.0940  -17.5711    0.0000 C   0  0  0  0  0  0  0  0  0  0  0  0
    8.0955  -18.3961    0.0000 C   0  0  0  0  0  0  0  0  0  0  0  0
    7.3838  -18.8114    0.0000 N   0  0  0  0  0  0  0  0  0  0  0  0
    6.6674  -18.4021    0.0000 C   0  0  0  0  0  0  0  0  0  0  0  0
    7.3875  -19.6364    0.0000 C   0  0  0  0  0  0  0  0  0  0  0  0
    8.0886  -15.0923    0.0000 C   0  0  0  0  0  0  0  0  0  0  0  0
 11 12  2  0
  5  6  1  0
 12 13  1  0
  3  6  2  0
 13 14  2  0
  6  7  1  0
 14 15  1  0
  1  2  2  0
 15 16  2  0
 16 11  1  0
  7  8  2  0
 12 17  1  0
  8 18  1  0
  5  4  2  0
 17 19  1  0
 18  9  2  0
 19 20  1  0
  9  5  1  0
 20 21  1  0
  4  1  1  0
 21 22  1  0
  9 10  1  0
 22 23  1  0
 23 24  1  0
 10 11  1  0
 23 25  1  0
  2  3  1  0
 13 26  1  0
M  END
>  <ACTIVITY>  (5) 
5.5

$$$$

     RDKit          2D

 25 27  0  0  0  0  0  0  0  0999 V2000
   -5.3973  -16.0625    0.0000 N   0  0  0  0  0  0  0  0  0  0  0  0
   -5.3984  -16.8898    0.0000 C   0  0  0  0  0  0  0  0  0  0  0  0
   -4.6836  -17.3027    0.0000 C   0  0  0  0  0  0  0  0  0  0  0  0
   -4.6854  -15.6497    0.0000 C   0  0  0  0  0  0  0  0  0  0  0  0
   -3.9700  -16.0588    0.0000 C   0  0  0  0  0  0  0  0  0  0  0  0
   -3.9693  -16.8857    0.0000 C   0  0  0  0  0  0  0  0  0  0  0  0
   -3.2540  -17.2966    0.0000 N   0  0  0  0  0  0  0  0  0  0  0  0
   -2.5389  -16.8819    0.0000 C   0  0  0  0  0  0  0  0  0  0  0  0
   -3.2596  -15.6447    0.0000 C   0  0  0  0  0  0  0  0  0  0  0  0
   -3.2640  -14.8197    0.0000 N   0  0  0  0  0  0  0  0  0  0  0  0
   -2.5517  -14.4034    0.0000 C   0  0  0  0  0  0  0  0  0  0  0  0
   -1.8397  -14.8155    0.0000 C   0  0  0  0  0  0  0  0  0  0  0  0
   -1.1279  -14.3999    0.0000 C   0  0  0  0  0  0  0  0  0  0  0  0
   -1.1318  -13.5741    0.0000 C   0  0  0  0  0  0  0  0  0  0  0  0
   -1.8535  -13.1655    0.0000 C   0  0  0  0  0  0  0  0  0  0  0  0
   -2.5623  -13.5835    0.0000 C   0  0  0  0  0  0  0  0  0  0  0  0
   -0.4114  -14.8090    0.0000 Br  0  0  0  0  0  0  0  0  0  0  0  0
   -1.8381  -15.6405    0.0000 N   0  0  0  0  0  0  0  0  0  0  0  0
   -2.5518  -16.0544    0.0000 N   0  0  0  0  0  0  0  0  0  0  0  0
   -1.1228  -16.0517    0.0000 C   0  0  0  0  0  0  0  0  0  0  0  0
   -1.1213  -16.8767    0.0000 C   0  0  0  0  0  0  0  0  0  0  0  0
   -0.4060  -17.2878    0.0000 S   0  0  0  0  0  0  0  0  0  0  0  0
    0.3042  -17.7000    0.0000 O   0  0  0  0  0  0  0  0  0  0  0  0
    0.0066  -16.5734    0.0000 O   0  0  0  0  0  0  0  0  0  0  0  0
   -0.8153  -18.0041    0.0000 O   0  0  0  0  0  0  0  0  0  0  0  0
  2  3  1  0
 11 12  2  0
  5  6  1  0
 12 13  1  0
  3  6  2  0
 13 14  2  0
  6  7  1  0
 14 15  1  0
  1  2  2  0
 15 16  2  0
 16 11  1  0
  7  8  2  0
 13 17  1  0
  8 19  1  0
 12 18  1  0
  5  4  2  0
 19  9  2  0
 18 20  1  0
  9  5  1  0
 20 21  1  0
  4  1  1  0
 21 22  1  0
  9 10  1  0
 22 23  1  0
 22 24  2  0
 10 11  1  0
 22 25  2  0
M  END
>  <ACTIVITY>  (6) 
1.41

$$$$

     RDKit          2D

 24 26  0  0  0  0  0  0  0  0999 V2000
   12.9486  -11.2875    0.0000 N   0  0  0  0  0  0  0  0  0  0  0  0
   12.9474  -12.1148    0.0000 C   0  0  0  0  0  0  0  0  0  0  0  0
   13.6622  -12.5277    0.0000 C   0  0  0  0  0  0  0  0  0  0  0  0
   13.6604  -10.8747    0.0000 C   0  0  0  0  0  0  0  0  0  0  0  0
   14.3758  -11.2838    0.0000 C   0  0  0  0  0  0  0  0  0  0  0  0
   14.3766  -12.1107    0.0000 C   0  0  0  0  0  0  0  0  0  0  0  0
   15.0919  -12.5216    0.0000 N   0  0  0  0  0  0  0  0  0  0  0  0
   15.8069  -12.1069    0.0000 C   0  0  0  0  0  0  0  0  0  0  0  0
   15.0862  -10.8697    0.0000 C   0  0  0  0  0  0  0  0  0  0  0  0
   15.0804  -10.0378    0.0000 N   0  0  0  0  0  0  0  0  0  0  0  0
   14.3624   -9.6315    0.0000 C   0  0  0  0  0  0  0  0  0  0  0  0
   14.3606   -8.8088    0.0000 C   0  0  0  0  0  0  0  0  0  0  0  0
   13.6435   -8.4025    0.0000 C   0  0  0  0  0  0  0  0  0  0  0  0
   12.9316   -8.8212    0.0000 C   0  0  0  0  0  0  0  0  0  0  0  0
   12.9414   -9.6504    0.0000 C   0  0  0  0  0  0  0  0  0  0  0  0
   13.6591  -10.0529    0.0000 C   0  0  0  0  0  0  0  0  0  0  0  0
   13.6368   -7.5775    0.0000 Br  0  0  0  0  0  0  0  0  0  0  0  0
   15.0729   -8.3926    0.0000 N   0  0  0  0  0  0  0  0  0  0  0  0
   15.7941  -11.2794    0.0000 N   0  0  0  0  0  0  0  0  0  0  0  0
   15.0687   -7.5676    0.0000 C   0  0  0  0  0  0  0  0  0  0  0  0
   15.7810   -7.1514    0.0000 C   0  0  0  0  0  0  0  0  0  0  0  0
   16.4989   -7.5580    0.0000 O   0  0  0  0  0  0  0  0  0  0  0  0
   15.7780   -6.3242    0.0000 O   0  0  0  0  0  0  0  0  0  0  0  0
   15.7895   -8.8014    0.0000 C   0  0  0  0  0  0  0  0  0  0  0  0
 10 11  1  0
  2  3  1  0
 11 12  2  0
  5  6  1  0
 12 13  1  0
  3  6  2  0
 13 14  2  0
  6  7  1  0
 14 15  1  0
  1  2  2  0
 15 16  2  0
 16 11  1  0
  7  8  2  0
 13 17  1  0
  8 19  1  0
 12 18  1  0
  5  4  2  0
 19  9  2  0
 18 20  1  0
  9  5  1  0
 20 21  1  0
  4  1  1  0
  9 10  1  0
 21 22  1  0
 21 23  2  0
 18 24  1  0
M  END
>  <ACTIVITY>  (7) 
16.22

$$$$

     RDKit          2D

 25 27  0  0  0  0  0  0  0  0999 V2000
    2.7569  -10.1625    0.0000 N   0  0  0  0  0  0  0  0  0  0  0  0
    2.7557  -10.9898    0.0000 C   0  0  0  0  0  0  0  0  0  0  0  0
    3.4706  -11.4027    0.0000 C   0  0  0  0  0  0  0  0  0  0  0  0
    3.4688   -9.7497    0.0000 C   0  0  0  0  0  0  0  0  0  0  0  0
    4.1841  -10.1588    0.0000 C   0  0  0  0  0  0  0  0  0  0  0  0
    4.1849  -10.9857    0.0000 C   0  0  0  0  0  0  0  0  0  0  0  0
    4.9002  -11.3966    0.0000 N   0  0  0  0  0  0  0  0  0  0  0  0
    5.6152  -10.9819    0.0000 C   0  0  0  0  0  0  0  0  0  0  0  0
    4.8946   -9.7447    0.0000 C   0  0  0  0  0  0  0  0  0  0  0  0
    4.8902   -8.9197    0.0000 N   0  0  0  0  0  0  0  0  0  0  0  0
    5.6025   -8.5034    0.0000 C   0  0  0  0  0  0  0  0  0  0  0  0
    6.3145   -8.9155    0.0000 C   0  0  0  0  0  0  0  0  0  0  0  0
    7.0263   -8.4999    0.0000 C   0  0  0  0  0  0  0  0  0  0  0  0
    7.0224   -7.6741    0.0000 C   0  0  0  0  0  0  0  0  0  0  0  0
    6.3007   -7.2655    0.0000 C   0  0  0  0  0  0  0  0  0  0  0  0
    5.5919   -7.6835    0.0000 C   0  0  0  0  0  0  0  0  0  0  0  0
    7.7427   -8.9090    0.0000 Br  0  0  0  0  0  0  0  0  0  0  0  0
    6.3161   -9.7405    0.0000 N   0  0  0  0  0  0  0  0  0  0  0  0
    5.6024  -10.1544    0.0000 N   0  0  0  0  0  0  0  0  0  0  0  0
    7.0313  -10.1517    0.0000 C   0  0  0  0  0  0  0  0  0  0  0  0
    7.0329  -10.9767    0.0000 C   0  0  0  0  0  0  0  0  0  0  0  0
    7.7481  -11.3878    0.0000 C   0  0  0  0  0  0  0  0  0  0  0  0
    7.7497  -12.2128    0.0000 C   0  0  0  0  0  0  0  0  0  0  0  0
    7.0379  -12.6280    0.0000 O   0  0  0  0  0  0  0  0  0  0  0  0
    8.4669  -12.6253    0.0000 O   0  0  0  0  0  0  0  0  0  0  0  0
  2  3  1  0
 11 12  2  0
  5  6  1  0
 12 13  1  0
  3  6  2  0
 13 14  2  0
  6  7  1  0
 14 15  1  0
  1  2  2  0
 15 16  2  0
 16 11  1  0
  7  8  2  0
 13 17  1  0
  8 19  1  0
 12 18  1  0
  5  4  2  0
 19  9  2  0
 18 20  1  0
  9  5  1  0
 20 21  1  0
  4  1  1  0
 21 22  1  0
  9 10  1  0
 22 23  1  0
 10 11  1  0
 23 24  1  0
 23 25  2  0
M  END
>  <ACTIVITY>  (8) 
0.282

$$$$

     RDKit          2D

 24 26  0  0  0  0  0  0  0  0999 V2000
   -5.4889  -10.3791    0.0000 N   0  0  0  0  0  0  0  0  0  0  0  0
   -5.4901  -11.2065    0.0000 C   0  0  0  0  0  0  0  0  0  0  0  0
   -4.7753  -11.6194    0.0000 C   0  0  0  0  0  0  0  0  0  0  0  0
   -4.7771   -9.9664    0.0000 C   0  0  0  0  0  0  0  0  0  0  0  0
   -4.0617  -10.3755    0.0000 C   0  0  0  0  0  0  0  0  0  0  0  0
   -4.0609  -11.2023    0.0000 C   0  0  0  0  0  0  0  0  0  0  0  0
   -3.3456  -11.6133    0.0000 N   0  0  0  0  0  0  0  0  0  0  0  0
   -2.6306  -11.1985    0.0000 C   0  0  0  0  0  0  0  0  0  0  0  0
   -3.3513   -9.9613    0.0000 C   0  0  0  0  0  0  0  0  0  0  0  0
   -3.3556   -9.1364    0.0000 N   0  0  0  0  0  0  0  0  0  0  0  0
   -2.6434   -8.7201    0.0000 C   0  0  0  0  0  0  0  0  0  0  0  0
   -1.9313   -9.1322    0.0000 C   0  0  0  0  0  0  0  0  0  0  0  0
   -1.2195   -8.7166    0.0000 C   0  0  0  0  0  0  0  0  0  0  0  0
   -1.2235   -7.8907    0.0000 C   0  0  0  0  0  0  0  0  0  0  0  0
   -1.9451   -7.4822    0.0000 C   0  0  0  0  0  0  0  0  0  0  0  0
   -2.6540   -7.9002    0.0000 C   0  0  0  0  0  0  0  0  0  0  0  0
   -0.5031   -9.1256    0.0000 Br  0  0  0  0  0  0  0  0  0  0  0  0
   -1.9298   -9.9572    0.0000 N   0  0  0  0  0  0  0  0  0  0  0  0
   -2.6434  -10.3710    0.0000 N   0  0  0  0  0  0  0  0  0  0  0  0
   -1.2145  -10.3683    0.0000 C   0  0  0  0  0  0  0  0  0  0  0  0
   -1.2129  -11.1933    0.0000 C   0  0  0  0  0  0  0  0  0  0  0  0
   -0.4977  -11.6045    0.0000 C   0  0  0  0  0  0  0  0  0  0  0  0
   -0.4951  -12.4291    0.0000 O   0  0  0  0  0  0  0  0  0  0  0  0
    0.2171  -11.1903    0.0000 O   0  0  0  0  0  0  0  0  0  0  0  0
 10 11  1  0
  2  3  1  0
 11 12  2  0
  5  6  1  0
 12 13  1  0
  3  6  2  0
 13 14  2  0
  6  7  1  0
 14 15  1  0
  1  2  2  0
 15 16  2  0
 16 11  1  0
  7  8  2  0
 13 17  1  0
  8 19  1  0
 12 18  1  0
  5  4  2  0
 19  9  2  0
 18 20  1  0
  9  5  1  0
 20 21  1  0
  4  1  1  0
 21 22  1  0
  9 10  1  0
 22 23  1  0
 22 24  2  0
M  END
>  <ACTIVITY>  (9) 
0.617

$$$$

     RDKit          2D

 23 25  0  0  0  0  0  0  0  0999 V2000
   11.7236   -4.4750    0.0000 N   0  0  0  0  0  0  0  0  0  0  0  0
   11.7224   -5.3023    0.0000 C   0  0  0  0  0  0  0  0  0  0  0  0
   12.4372   -5.7152    0.0000 C   0  0  0  0  0  0  0  0  0  0  0  0
   12.4354   -4.0622    0.0000 C   0  0  0  0  0  0  0  0  0  0  0  0
   13.1508   -4.4713    0.0000 C   0  0  0  0  0  0  0  0  0  0  0  0
   13.1516   -5.2982    0.0000 C   0  0  0  0  0  0  0  0  0  0  0  0
   13.8669   -5.7091    0.0000 N   0  0  0  0  0  0  0  0  0  0  0  0
   14.5819   -5.2944    0.0000 C   0  0  0  0  0  0  0  0  0  0  0  0
   13.8612   -4.0572    0.0000 C   0  0  0  0  0  0  0  0  0  0  0  0
   13.8569   -3.2322    0.0000 N   0  0  0  0  0  0  0  0  0  0  0  0
   14.5691   -2.8159    0.0000 C   0  0  0  0  0  0  0  0  0  0  0  0
   15.2812   -3.2280    0.0000 C   0  0  0  0  0  0  0  0  0  0  0  0
   15.9930   -2.8124    0.0000 C   0  0  0  0  0  0  0  0  0  0  0  0
   15.9890   -1.9866    0.0000 C   0  0  0  0  0  0  0  0  0  0  0  0
   15.2674   -1.5780    0.0000 C   0  0  0  0  0  0  0  0  0  0  0  0
   14.5585   -1.9960    0.0000 C   0  0  0  0  0  0  0  0  0  0  0  0
   16.7094   -3.2215    0.0000 Br  0  0  0  0  0  0  0  0  0  0  0  0
   15.2827   -4.0530    0.0000 N   0  0  0  0  0  0  0  0  0  0  0  0
   14.5691   -4.4669    0.0000 N   0  0  0  0  0  0  0  0  0  0  0  0
   15.9980   -4.4642    0.0000 C   0  0  0  0  0  0  0  0  0  0  0  0
   15.9996   -5.2892    0.0000 C   0  0  0  0  0  0  0  0  0  0  0  0
   15.2871   -5.7052    0.0000 O   0  0  0  0  0  0  0  0  0  0  0  0
   16.7161   -5.7025    0.0000 O   0  0  0  0  0  0  0  0  0  0  0  0
 10 11  1  0
  2  3  1  0
 11 12  2  0
  5  6  1  0
 12 13  1  0
  3  6  2  0
 13 14  2  0
  6  7  1  0
 14 15  1  0
  1  2  2  0
 15 16  2  0
 16 11  1  0
  7  8  2  0
 13 17  1  0
  8 19  1  0
 12 18  1  0
  5  4  2  0
 19  9  2  0
 18 20  1  0
  9  5  1  0
 20 21  1  0
  4  1  1  0
  9 10  1  0
 21 22  1  0
 21 23  2  0
M  END
>  <ACTIVITY>  (10) 
1.51

$$$$

     RDKit          2D

 26 29  0  0  0  0  0  0  0  0999 V2000
    3.6319   -4.9125    0.0000 N   0  0  0  0  0  0  0  0  0  0  0  0
    3.6307   -5.7398    0.0000 C   0  0  0  0  0  0  0  0  0  0  0  0
    4.3456   -6.1527    0.0000 C   0  0  0  0  0  0  0  0  0  0  0  0
    4.3438   -4.4997    0.0000 C   0  0  0  0  0  0  0  0  0  0  0  0
    5.0591   -4.9088    0.0000 C   0  0  0  0  0  0  0  0  0  0  0  0
    5.0599   -5.7357    0.0000 C   0  0  0  0  0  0  0  0  0  0  0  0
    5.7752   -6.1466    0.0000 N   0  0  0  0  0  0  0  0  0  0  0  0
    6.4902   -5.7319    0.0000 C   0  0  0  0  0  0  0  0  0  0  0  0
    5.7696   -4.4947    0.0000 C   0  0  0  0  0  0  0  0  0  0  0  0
    5.7652   -3.6697    0.0000 N   0  0  0  0  0  0  0  0  0  0  0  0
    6.4775   -3.2534    0.0000 C   0  0  0  0  0  0  0  0  0  0  0  0
    7.1895   -3.6655    0.0000 C   0  0  0  0  0  0  0  0  0  0  0  0
    7.9013   -3.2499    0.0000 C   0  0  0  0  0  0  0  0  0  0  0  0
    7.8974   -2.4241    0.0000 C   0  0  0  0  0  0  0  0  0  0  0  0
    7.1757   -2.0155    0.0000 C   0  0  0  0  0  0  0  0  0  0  0  0
    6.4669   -2.4335    0.0000 C   0  0  0  0  0  0  0  0  0  0  0  0
    8.6177   -3.6590    0.0000 Br  0  0  0  0  0  0  0  0  0  0  0  0
    7.1911   -4.4905    0.0000 N   0  0  0  0  0  0  0  0  0  0  0  0
    6.4774   -4.9044    0.0000 N   0  0  0  0  0  0  0  0  0  0  0  0
    7.9063   -4.9017    0.0000 C   0  0  0  0  0  0  0  0  0  0  0  0
    7.9079   -5.7267    0.0000 C   0  0  0  0  0  0  0  0  0  0  0  0
    8.6231   -6.1378    0.0000 C   0  0  0  0  0  0  0  0  0  0  0  0
    8.7110   -6.9555    0.0000 C   0  0  0  0  0  0  0  0  0  0  0  0
    9.5183   -7.1255    0.0000 N   0  0  0  0  0  0  0  0  0  0  0  0
    9.9295   -6.4102    0.0000 C   0  0  0  0  0  0  0  0  0  0  0  0
    9.3762   -5.7983    0.0000 N   0  0  0  0  0  0  0  0  0  0  0  0
 11 12  1  0
  5  6  1  0
 12 13  2  0
  3  6  2  0
 13 14  1  0
  6  7  1  0
 14 15  2  0
  1  2  2  0
 15 16  1  0
 16 11  2  0
  7  8  2  0
 13 17  1  0
  8 19  1  0
 12 18  1  0
  5  4  2  0
 19  9  2  0
 18 20  1  0
  9  5  1  0
 20 21  1  0
  4  1  1  0
 21 22  1  0
 22 23  2  0
  9 10  1  0
 10 11  1  0
  2  3  1  0
 23 24  1  0
 24 25  1  0
 25 26  2  0
 26 22  1  0
M  END
>  <ACTIVITY>  (11) 
0.912

$$$$

     RDKit          2D

 27 30  0  0  0  0  0  0  0  0999 V2000
   -5.2848   -5.1041    0.0000 N   0  0  0  0  0  0  0  0  0  0  0  0
   -5.2859   -5.9315    0.0000 C   0  0  0  0  0  0  0  0  0  0  0  0
   -4.5711   -6.3444    0.0000 C   0  0  0  0  0  0  0  0  0  0  0  0
   -4.5729   -4.6914    0.0000 C   0  0  0  0  0  0  0  0  0  0  0  0
   -3.8575   -5.1005    0.0000 C   0  0  0  0  0  0  0  0  0  0  0  0
   -3.8568   -5.9273    0.0000 C   0  0  0  0  0  0  0  0  0  0  0  0
   -3.1415   -6.3383    0.0000 N   0  0  0  0  0  0  0  0  0  0  0  0
   -2.4264   -5.9235    0.0000 C   0  0  0  0  0  0  0  0  0  0  0  0
   -3.1471   -4.6863    0.0000 C   0  0  0  0  0  0  0  0  0  0  0  0
   -3.1515   -3.8614    0.0000 N   0  0  0  0  0  0  0  0  0  0  0  0
   -2.4392   -3.4451    0.0000 C   0  0  0  0  0  0  0  0  0  0  0  0
   -1.7272   -3.8572    0.0000 C   0  0  0  0  0  0  0  0  0  0  0  0
   -1.0154   -3.4416    0.0000 C   0  0  0  0  0  0  0  0  0  0  0  0
   -1.0193   -2.6157    0.0000 C   0  0  0  0  0  0  0  0  0  0  0  0
   -1.7410   -2.2072    0.0000 C   0  0  0  0  0  0  0  0  0  0  0  0
   -2.4498   -2.6252    0.0000 C   0  0  0  0  0  0  0  0  0  0  0  0
   -0.2989   -3.8506    0.0000 Br  0  0  0  0  0  0  0  0  0  0  0  0
   -1.7256   -4.6822    0.0000 N   0  0  0  0  0  0  0  0  0  0  0  0
   -2.4393   -5.0960    0.0000 N   0  0  0  0  0  0  0  0  0  0  0  0
   -1.0103   -5.0933    0.0000 C   0  0  0  0  0  0  0  0  0  0  0  0
   -1.0088   -5.9183    0.0000 C   0  0  0  0  0  0  0  0  0  0  0  0
   -0.2935   -6.3295    0.0000 C   0  0  0  0  0  0  0  0  0  0  0  0
    0.4201   -5.9142    0.0000 N   0  0  0  0  0  0  0  0  0  0  0  0
    1.1727   -6.2442    0.0000 C   0  0  0  0  0  0  0  0  0  0  0  0
    1.7231   -5.6288    0.0000 N   0  0  0  0  0  0  0  0  0  0  0  0
    1.3078   -4.9151    0.0000 C   0  0  0  0  0  0  0  0  0  0  0  0
    0.5009   -5.0896    0.0000 C   0  0  0  0  0  0  0  0  0  0  0  0
  5  6  1  0
 12 13  2  0
  3  6  2  0
 13 14  1  0
  6  7  1  0
 14 15  2  0
  1  2  2  0
 15 16  1  0
 16 11  2  0
  7  8  2  0
 13 17  1  0
  8 19  1  0
 12 18  1  0
  5  4  2  0
 19  9  2  0
 18 20  1  0
  9  5  1  0
 20 21  1  0
  4  1  1  0
 21 22  1  0
  9 10  1  0
 22 23  1  0
 23 24  1  0
 10 11  1  0
  2  3  1  0
 11 12  1  0
 24 25  2  0
 25 26  1  0
 26 27  2  0
 27 23  1  0
M  END
>  <ACTIVITY>  (12) 
0.513

$$$$

     RDKit          2D

 20 22  0  0  0  0  0  0  0  0999 V2000
   12.7494    0.4250    0.0000 N   0  0  0  0  0  0  0  0  0  0  0  0
   12.7482   -0.4023    0.0000 C   0  0  0  0  0  0  0  0  0  0  0  0
   13.4631   -0.8153    0.0000 C   0  0  0  0  0  0  0  0  0  0  0  0
   13.4613    0.8379    0.0000 C   0  0  0  0  0  0  0  0  0  0  0  0
   14.1767    0.4287    0.0000 C   0  0  0  0  0  0  0  0  0  0  0  0
   14.1775   -0.3982    0.0000 C   0  0  0  0  0  0  0  0  0  0  0  0
   14.8929   -0.8092    0.0000 N   0  0  0  0  0  0  0  0  0  0  0  0
   15.6079   -0.3944    0.0000 C   0  0  0  0  0  0  0  0  0  0  0  0
   14.8872    0.8429    0.0000 C   0  0  0  0  0  0  0  0  0  0  0  0
   14.8829    1.6679    0.0000 N   0  0  0  0  0  0  0  0  0  0  0  0
   15.5951    2.0842    0.0000 C   0  0  0  0  0  0  0  0  0  0  0  0
   16.3073    1.6721    0.0000 C   0  0  0  0  0  0  0  0  0  0  0  0
   17.0191    2.0877    0.0000 C   0  0  0  0  0  0  0  0  0  0  0  0
   17.0151    2.9136    0.0000 C   0  0  0  0  0  0  0  0  0  0  0  0
   16.2935    3.3222    0.0000 C   0  0  0  0  0  0  0  0  0  0  0  0
   15.5845    2.9042    0.0000 C   0  0  0  0  0  0  0  0  0  0  0  0
   17.7356    1.6786    0.0000 Br  0  0  0  0  0  0  0  0  0  0  0  0
   16.3088    0.8471    0.0000 N   0  0  0  0  0  0  0  0  0  0  0  0
   15.5951    0.4331    0.0000 N   0  0  0  0  0  0  0  0  0  0  0  0
   17.0241    0.4358    0.0000 N   0  0  0  0  0  0  0  0  0  0  0  0
  9  5  2  0
  4  1  2  0
  9 10  1  0
 10 11  1  0
  2  3  2  0
 11 12  2  0
  5  6  1  0
 12 13  1  0
  3  6  1  0
 13 14  2  0
  6  7  2  0
 14 15  1  0
  1  2  1  0
 15 16  2  0
 16 11  1  0
  7  8  1  0
 13 17  1  0
  8 19  2  0
 12 18  1  0
  5  4  1  0
 19  9  1  0
 18 20  1  0
M  END
>  <ACTIVITY>  (13) 
7.24

$$$$

     RDKit          2D

 29 31  0  0  0  0  0  0  0  0999 V2000
    2.6194    0.0917    0.0000 N   0  0  0  0  0  0  0  0  0  0  0  0
    2.6182   -0.7357    0.0000 C   0  0  0  0  0  0  0  0  0  0  0  0
    3.3331   -1.1485    0.0000 C   0  0  0  0  0  0  0  0  0  0  0  0
    3.3313    0.5045    0.0000 C   0  0  0  0  0  0  0  0  0  0  0  0
    4.0466    0.0953    0.0000 C   0  0  0  0  0  0  0  0  0  0  0  0
    4.0474   -0.7315    0.0000 C   0  0  0  0  0  0  0  0  0  0  0  0
    4.7627   -1.1425    0.0000 N   0  0  0  0  0  0  0  0  0  0  0  0
    5.4777   -0.7277    0.0000 C   0  0  0  0  0  0  0  0  0  0  0  0
    4.7571    0.5095    0.0000 C   0  0  0  0  0  0  0  0  0  0  0  0
    4.7527    1.3345    0.0000 N   0  0  0  0  0  0  0  0  0  0  0  0
    5.4650    1.7508    0.0000 C   0  0  0  0  0  0  0  0  0  0  0  0
    6.1770    1.3386    0.0000 C   0  0  0  0  0  0  0  0  0  0  0  0
    6.8888    1.7542    0.0000 C   0  0  0  0  0  0  0  0  0  0  0  0
    6.8849    2.5801    0.0000 C   0  0  0  0  0  0  0  0  0  0  0  0
    6.1632    2.9886    0.0000 C   0  0  0  0  0  0  0  0  0  0  0  0
    5.4544    2.5707    0.0000 C   0  0  0  0  0  0  0  0  0  0  0  0
    7.6052    1.3452    0.0000 Br  0  0  0  0  0  0  0  0  0  0  0  0
    6.1786    0.5136    0.0000 N   0  0  0  0  0  0  0  0  0  0  0  0
    5.4649    0.0998    0.0000 N   0  0  0  0  0  0  0  0  0  0  0  0
    6.8938    0.1025    0.0000 C   0  0  0  0  0  0  0  0  0  0  0  0
    6.8954   -0.7225    0.0000 C   0  0  0  0  0  0  0  0  0  0  0  0
    7.6106   -1.1336    0.0000 C   0  0  0  0  0  0  0  0  0  0  0  0
    8.3242   -0.7184    0.0000 N   0  0  0  0  0  0  0  0  0  0  0  0
    8.3214    0.1066    0.0000 C   0  0  0  0  0  0  0  0  0  0  0  0
    9.0345    0.5215    0.0000 C   0  0  0  0  0  0  0  0  0  0  0  0
    9.0317    1.3465    0.0000 O   0  0  0  0  0  0  0  0  0  0  0  0
    9.0401   -1.1285    0.0000 C   0  0  0  0  0  0  0  0  0  0  0  0
    9.7532   -0.7135    0.0000 C   0  0  0  0  0  0  0  0  0  0  0  0
   10.4690   -1.1236    0.0000 O   0  0  0  0  0  0  0  0  0  0  0  0
  3  6  2  0
 13 14  2  0
  6  7  1  0
 14 15  1  0
  1  2  2  0
 15 16  2  0
 16 11  1  0
  7  8  2  0
 13 17  1  0
  8 19  1  0
 12 18  1  0
  5  4  2  0
 19  9  2  0
 18 20  1  0
  9  5  1  0
 20 21  1  0
  4  1  1  0
 21 22  1  0
  9 10  1  0
 22 23  1  0
 23 24  1  0
 10 11  1  0
 24 25  1  0
  2  3  1  0
 25 26  1  0
 11 12  2  0
 23 27  1  0
  5  6  1  0
 27 28  1  0
 12 13  1  0
 28 29  1  0
M  END
>  <ACTIVITY>  (14) 
1.2

$$$$

     RDKit          2D

 28 30  0  0  0  0  0  0  0  0999 V2000
   -5.5973    0.5042    0.0000 N   0  0  0  0  0  0  0  0  0  0  0  0
   -5.5984   -0.3232    0.0000 C   0  0  0  0  0  0  0  0  0  0  0  0
   -4.8836   -0.7360    0.0000 C   0  0  0  0  0  0  0  0  0  0  0  0
   -4.8854    0.9170    0.0000 C   0  0  0  0  0  0  0  0  0  0  0  0
   -4.1700    0.5078    0.0000 C   0  0  0  0  0  0  0  0  0  0  0  0
   -4.1693   -0.3190    0.0000 C   0  0  0  0  0  0  0  0  0  0  0  0
   -3.4540   -0.7300    0.0000 N   0  0  0  0  0  0  0  0  0  0  0  0
   -2.7389   -0.3152    0.0000 C   0  0  0  0  0  0  0  0  0  0  0  0
   -3.4596    0.9220    0.0000 C   0  0  0  0  0  0  0  0  0  0  0  0
   -3.4640    1.7470    0.0000 N   0  0  0  0  0  0  0  0  0  0  0  0
   -2.7517    2.1633    0.0000 C   0  0  0  0  0  0  0  0  0  0  0  0
   -2.0397    1.7511    0.0000 C   0  0  0  0  0  0  0  0  0  0  0  0
   -1.3279    2.1667    0.0000 C   0  0  0  0  0  0  0  0  0  0  0  0
   -1.3318    2.9926    0.0000 C   0  0  0  0  0  0  0  0  0  0  0  0
   -2.0535    3.4011    0.0000 C   0  0  0  0  0  0  0  0  0  0  0  0
   -2.7623    2.9832    0.0000 C   0  0  0  0  0  0  0  0  0  0  0  0
   -0.6114    1.7577    0.0000 Br  0  0  0  0  0  0  0  0  0  0  0  0
   -2.0381    0.9261    0.0000 N   0  0  0  0  0  0  0  0  0  0  0  0
   -2.7518    0.5123    0.0000 N   0  0  0  0  0  0  0  0  0  0  0  0
   -1.3228    0.5150    0.0000 C   0  0  0  0  0  0  0  0  0  0  0  0
   -1.3213   -0.3100    0.0000 C   0  0  0  0  0  0  0  0  0  0  0  0
   -0.6060   -0.7211    0.0000 N   0  0  0  0  0  0  0  0  0  0  0  0
   -0.6044   -1.5468    0.0000 C   0  0  0  0  0  0  0  0  0  0  0  0
    0.1076   -0.3059    0.0000 C   0  0  0  0  0  0  0  0  0  0  0  0
    0.1109   -1.9579    0.0000 C   0  0  0  0  0  0  0  0  0  0  0  0
    0.8234   -0.7160    0.0000 C   0  0  0  0  0  0  0  0  0  0  0  0
    1.5365   -0.3010    0.0000 O   0  0  0  0  0  0  0  0  0  0  0  0
    0.1125   -2.7829    0.0000 O   0  0  0  0  0  0  0  0  0  0  0  0
 12 13  2  0
  3  6  2  0
 13 14  1  0
  6  7  1  0
 14 15  2  0
  1  2  2  0
 15 16  1  0
 16 11  2  0
  7  8  2  0
 13 17  1  0
  8 19  1  0
 12 18  1  0
  5  4  2  0
 19  9  2  0
 18 20  1  0
  9  5  1  0
 20 21  1  0
  4  1  1  0
 21 22  1  0
 22 23  1  0
  9 10  1  0
 22 24  1  0
 10 11  1  0
 23 25  1  0
  2  3  1  0
 24 26  1  0
 11 12  1  0
 26 27  1  0
  5  6  1  0
 25 28  1  0
M  END
>  <ACTIVITY>  (15) 
9.33

$$$$

     RDKit          2D

 29 32  0  0  0  0  0  0  0  0999 V2000
    9.6611  -23.2083    0.0000 N   0  0  0  0  0  0  0  0  0  0  0  0
    9.6599  -24.0357    0.0000 C   0  0  0  0  0  0  0  0  0  0  0  0
   10.3747  -24.4485    0.0000 C   0  0  0  0  0  0  0  0  0  0  0  0
   10.3729  -22.7955    0.0000 C   0  0  0  0  0  0  0  0  0  0  0  0
   11.0883  -23.2047    0.0000 C   0  0  0  0  0  0  0  0  0  0  0  0
   11.0891  -24.0315    0.0000 C   0  0  0  0  0  0  0  0  0  0  0  0
   11.8044  -24.4425    0.0000 N   0  0  0  0  0  0  0  0  0  0  0  0
   12.5194  -24.0277    0.0000 C   0  0  0  0  0  0  0  0  0  0  0  0
   11.7987  -22.7905    0.0000 C   0  0  0  0  0  0  0  0  0  0  0  0
   11.7944  -21.9655    0.0000 N   0  0  0  0  0  0  0  0  0  0  0  0
   12.5066  -21.5492    0.0000 C   0  0  0  0  0  0  0  0  0  0  0  0
   13.2187  -21.9614    0.0000 C   0  0  0  0  0  0  0  0  0  0  0  0
   13.9305  -21.5458    0.0000 C   0  0  0  0  0  0  0  0  0  0  0  0
   13.9265  -20.7199    0.0000 C   0  0  0  0  0  0  0  0  0  0  0  0
   13.2049  -20.3114    0.0000 C   0  0  0  0  0  0  0  0  0  0  0  0
   12.4960  -20.7293    0.0000 C   0  0  0  0  0  0  0  0  0  0  0  0
   14.6469  -21.9548    0.0000 Br  0  0  0  0  0  0  0  0  0  0  0  0
   13.2202  -22.7864    0.0000 N   0  0  0  0  0  0  0  0  0  0  0  0
   12.5066  -23.2002    0.0000 N   0  0  0  0  0  0  0  0  0  0  0  0
   13.9355  -23.1975    0.0000 C   0  0  0  0  0  0  0  0  0  0  0  0
   13.9371  -24.0225    0.0000 C   0  0  0  0  0  0  0  0  0  0  0  0
   14.6523  -24.4336    0.0000 C   0  0  0  0  0  0  0  0  0  0  0  0
   14.6539  -25.2586    0.0000 N   0  0  0  0  0  0  0  0  0  0  0  0
   13.9388  -25.6714    0.0000 C   0  0  0  0  0  0  0  0  0  0  0  0
   13.9384  -26.4928    0.0000 C   0  0  0  0  0  0  0  0  0  0  0  0
   14.6518  -26.9078    0.0000 N   0  0  0  0  0  0  0  0  0  0  0  0
   15.3673  -26.4952    0.0000 C   0  0  0  0  0  0  0  0  0  0  0  0
   15.3694  -25.6675    0.0000 C   0  0  0  0  0  0  0  0  0  0  0  0
   14.6503  -27.7328    0.0000 C   0  0  0  0  0  0  0  0  0  0  0  0
  3  6  2  0
 13 14  2  0
  6  7  1  0
 14 15  1  0
  1  2  2  0
 15 16  2  0
 16 11  1  0
  7  8  2  0
 13 17  1  0
  8 19  1  0
 12 18  1  0
  5  4  2  0
 19  9  2  0
 18 20  1  0
  9  5  1  0
 20 21  1  0
  4  1  1  0
 21 22  1  0
  9 10  1  0
 22 23  1  0
 23 24  1  0
 10 11  1  0
  2  3  1  0
 11 12  2  0
  5  6  1  0
 23 28  1  0
 24 25  1  0
 25 26  1  0
 26 27  1  0
 27 28  1  0
 12 13  1  0
 26 29  1  0
M  END
>  <ACTIVITY>  (16) 
5.01

$$$$

     RDKit          2D

 29 32  0  0  0  0  0  0  0  0999 V2000
    1.5777  -23.7958    0.0000 N   0  0  0  0  0  0  0  0  0  0  0  0
    1.5766  -24.6232    0.0000 C   0  0  0  0  0  0  0  0  0  0  0  0
    2.2914  -25.0360    0.0000 C   0  0  0  0  0  0  0  0  0  0  0  0
    2.2896  -23.3830    0.0000 C   0  0  0  0  0  0  0  0  0  0  0  0
    3.0050  -23.7922    0.0000 C   0  0  0  0  0  0  0  0  0  0  0  0
    3.0057  -24.6190    0.0000 C   0  0  0  0  0  0  0  0  0  0  0  0
    3.7210  -25.0300    0.0000 N   0  0  0  0  0  0  0  0  0  0  0  0
    4.4361  -24.6152    0.0000 C   0  0  0  0  0  0  0  0  0  0  0  0
    3.7154  -23.3780    0.0000 C   0  0  0  0  0  0  0  0  0  0  0  0
    3.7110  -22.5530    0.0000 N   0  0  0  0  0  0  0  0  0  0  0  0
    4.4233  -22.1367    0.0000 C   0  0  0  0  0  0  0  0  0  0  0  0
    5.1353  -22.5489    0.0000 C   0  0  0  0  0  0  0  0  0  0  0  0
    5.8471  -22.1333    0.0000 C   0  0  0  0  0  0  0  0  0  0  0  0
    5.8432  -21.3074    0.0000 C   0  0  0  0  0  0  0  0  0  0  0  0
    5.1215  -20.8989    0.0000 C   0  0  0  0  0  0  0  0  0  0  0  0
    4.4127  -21.3168    0.0000 C   0  0  0  0  0  0  0  0  0  0  0  0
    6.5636  -22.5423    0.0000 Br  0  0  0  0  0  0  0  0  0  0  0  0
    5.1369  -23.3739    0.0000 N   0  0  0  0  0  0  0  0  0  0  0  0
    4.4232  -23.7877    0.0000 N   0  0  0  0  0  0  0  0  0  0  0  0
    5.8522  -23.7850    0.0000 C   0  0  0  0  0  0  0  0  0  0  0  0
    5.8537  -24.6100    0.0000 C   0  0  0  0  0  0  0  0  0  0  0  0
    6.5690  -25.0211    0.0000 C   0  0  0  0  0  0  0  0  0  0  0  0
    6.5705  -25.8461    0.0000 C   0  0  0  0  0  0  0  0  0  0  0  0
    7.2858  -26.2573    0.0000 N   0  0  0  0  0  0  0  0  0  0  0  0
    7.2827  -27.0798    0.0000 C   0  0  0  0  0  0  0  0  0  0  0  0
    7.9938  -27.4909    0.0000 C   0  0  0  0  0  0  0  0  0  0  0  0
    8.7100  -27.0805    0.0000 O   0  0  0  0  0  0  0  0  0  0  0  0
    8.7104  -26.2546    0.0000 C   0  0  0  0  0  0  0  0  0  0  0  0
    7.9947  -25.8390    0.0000 C   0  0  0  0  0  0  0  0  0  0  0  0
  3  6  2  0
 13 14  2  0
  6  7  1  0
 14 15  1  0
  1  2  2  0
 15 16  2  0
 16 11  1  0
  7  8  2  0
 13 17  1  0
  8 19  1  0
 12 18  1  0
  5  4  2  0
 19  9  2  0
 18 20  1  0
  9  5  1  0
 20 21  1  0
  4  1  1  0
 21 22  1  0
  9 10  1  0
 22 23  1  0
 23 24  1  0
 24 25  1  0
 10 11  1  0
  2  3  1  0
 11 12  2  0
  5  6  1  0
 12 13  1  0
 24 29  1  0
 25 26  1  0
 26 27  1  0
 27 28  1  0
 28 29  1  0
M  END
>  <ACTIVITY>  (17) 
5.5

$$$$

     RDKit          2D

 28 31  0  0  0  0  0  0  0  0999 V2000
   -5.4223  -23.3250    0.0000 N   0  0  0  0  0  0  0  0  0  0  0  0
   -5.4234  -24.1523    0.0000 C   0  0  0  0  0  0  0  0  0  0  0  0
   -4.7086  -24.5652    0.0000 C   0  0  0  0  0  0  0  0  0  0  0  0
   -4.7104  -22.9122    0.0000 C   0  0  0  0  0  0  0  0  0  0  0  0
   -3.9950  -23.3213    0.0000 C   0  0  0  0  0  0  0  0  0  0  0  0
   -3.9943  -24.1482    0.0000 C   0  0  0  0  0  0  0  0  0  0  0  0
   -3.2790  -24.5591    0.0000 N   0  0  0  0  0  0  0  0  0  0  0  0
   -2.5639  -24.1444    0.0000 C   0  0  0  0  0  0  0  0  0  0  0  0
   -3.2846  -22.9072    0.0000 C   0  0  0  0  0  0  0  0  0  0  0  0
   -3.2890  -22.0822    0.0000 N   0  0  0  0  0  0  0  0  0  0  0  0
   -2.5767  -21.6659    0.0000 C   0  0  0  0  0  0  0  0  0  0  0  0
   -1.8647  -22.0780    0.0000 C   0  0  0  0  0  0  0  0  0  0  0  0
   -1.1529  -21.6624    0.0000 C   0  0  0  0  0  0  0  0  0  0  0  0
   -1.1568  -20.8366    0.0000 C   0  0  0  0  0  0  0  0  0  0  0  0
   -1.8785  -20.4280    0.0000 C   0  0  0  0  0  0  0  0  0  0  0  0
   -2.5873  -20.8460    0.0000 C   0  0  0  0  0  0  0  0  0  0  0  0
   -0.4364  -22.0715    0.0000 Br  0  0  0  0  0  0  0  0  0  0  0  0
   -1.8631  -22.9030    0.0000 N   0  0  0  0  0  0  0  0  0  0  0  0
   -2.5768  -23.3169    0.0000 N   0  0  0  0  0  0  0  0  0  0  0  0
   -1.1478  -23.3142    0.0000 C   0  0  0  0  0  0  0  0  0  0  0  0
   -1.1463  -24.1392    0.0000 C   0  0  0  0  0  0  0  0  0  0  0  0
   -0.4310  -24.5503    0.0000 C   0  0  0  0  0  0  0  0  0  0  0  0
   -0.4295  -25.3753    0.0000 N   0  0  0  0  0  0  0  0  0  0  0  0
   -1.1445  -25.7880    0.0000 C   0  0  0  0  0  0  0  0  0  0  0  0
   -1.1449  -26.6094    0.0000 C   0  0  0  0  0  0  0  0  0  0  0  0
   -0.4315  -27.0244    0.0000 O   0  0  0  0  0  0  0  0  0  0  0  0
    0.2840  -26.6118    0.0000 C   0  0  0  0  0  0  0  0  0  0  0  0
    0.2861  -25.7842    0.0000 C   0  0  0  0  0  0  0  0  0  0  0  0
 12 13  2  0
  3  6  2  0
 13 14  1  0
  6  7  1  0
 14 15  2  0
  1  2  2  0
 15 16  1  0
 16 11  2  0
  7  8  2  0
 13 17  1  0
  8 19  1  0
 12 18  1  0
  5  4  2  0
 19  9  2  0
 18 20  1  0
  9  5  1  0
 20 21  1  0
  4  1  1  0
 21 22  1  0
  9 10  1  0
 22 23  1  0
 23 24  1  0
 10 11  1  0
  2  3  1  0
 11 12  1  0
  5  6  1  0
 23 28  1  0
 24 25  1  0
 25 26  1  0
 26 27  1  0
 27 28  1  0
M  END
>  <ACTIVITY>  (18) 
1.91

$$$$

     RDKit          2D

 27 30  0  0  0  0  0  0  0  0999 V2000
    9.3486  -18.0958    0.0000 N   0  0  0  0  0  0  0  0  0  0  0  0
    9.3474  -18.9232    0.0000 C   0  0  0  0  0  0  0  0  0  0  0  0
   10.0622  -19.3360    0.0000 C   0  0  0  0  0  0  0  0  0  0  0  0
   10.0604  -17.6830    0.0000 C   0  0  0  0  0  0  0  0  0  0  0  0
   10.7758  -18.0922    0.0000 C   0  0  0  0  0  0  0  0  0  0  0  0
   10.7766  -18.9190    0.0000 C   0  0  0  0  0  0  0  0  0  0  0  0
   11.4919  -19.3300    0.0000 N   0  0  0  0  0  0  0  0  0  0  0  0
   12.2069  -18.9152    0.0000 C   0  0  0  0  0  0  0  0  0  0  0  0
   11.4862  -17.6780    0.0000 C   0  0  0  0  0  0  0  0  0  0  0  0
   11.4819  -16.8530    0.0000 N   0  0  0  0  0  0  0  0  0  0  0  0
   12.1941  -16.4367    0.0000 C   0  0  0  0  0  0  0  0  0  0  0  0
   12.9062  -16.8489    0.0000 C   0  0  0  0  0  0  0  0  0  0  0  0
   13.6180  -16.4333    0.0000 C   0  0  0  0  0  0  0  0  0  0  0  0
   13.6140  -15.6074    0.0000 C   0  0  0  0  0  0  0  0  0  0  0  0
   12.8924  -15.1989    0.0000 C   0  0  0  0  0  0  0  0  0  0  0  0
   12.1835  -15.6168    0.0000 C   0  0  0  0  0  0  0  0  0  0  0  0
   14.3344  -16.8423    0.0000 Br  0  0  0  0  0  0  0  0  0  0  0  0
   12.9077  -17.6739    0.0000 N   0  0  0  0  0  0  0  0  0  0  0  0
   12.1941  -18.0877    0.0000 N   0  0  0  0  0  0  0  0  0  0  0  0
   13.6230  -18.0850    0.0000 C   0  0  0  0  0  0  0  0  0  0  0  0
   13.6246  -18.9100    0.0000 C   0  0  0  0  0  0  0  0  0  0  0  0
   14.3398  -19.3211    0.0000 N   0  0  0  0  0  0  0  0  0  0  0  0
   14.3414  -20.1468    0.0000 C   0  0  0  0  0  0  0  0  0  0  0  0
   15.0526  -20.5578    0.0000 C   0  0  0  0  0  0  0  0  0  0  0  0
   15.7687  -20.1475    0.0000 O   0  0  0  0  0  0  0  0  0  0  0  0
   15.7691  -19.3215    0.0000 C   0  0  0  0  0  0  0  0  0  0  0  0
   15.0534  -18.9059    0.0000 C   0  0  0  0  0  0  0  0  0  0  0  0
  5  6  1  0
 12 13  2  0
  3  6  2  0
 13 14  1  0
  6  7  1  0
 14 15  2  0
  1  2  2  0
 15 16  1  0
 16 11  2  0
  7  8  2  0
 13 17  1  0
  8 19  1  0
 12 18  1  0
  5  4  2  0
 19  9  2  0
 18 20  1  0
  9  5  1  0
 20 21  1  0
  4  1  1  0
 21 22  1  0
 22 23  1  0
  9 10  1  0
 10 11  1  0
  2  3  1  0
 11 12  1  0
 22 27  1  0
 23 24  1  0
 24 25  1  0
 25 26  1  0
 26 27  1  0
M  END
>  <ACTIVITY>  (19) 
3.24

$$$$

     RDKit          2D

 25 27  0  0  0  0  0  0  0  0999 V2000
    3.2777  -18.9958    0.0000 N   0  0  0  0  0  0  0  0  0  0  0  0
    3.2766  -19.8232    0.0000 C   0  0  0  0  0  0  0  0  0  0  0  0
    3.9914  -20.2360    0.0000 C   0  0  0  0  0  0  0  0  0  0  0  0
    3.9896  -18.5830    0.0000 C   0  0  0  0  0  0  0  0  0  0  0  0
    4.7050  -18.9922    0.0000 C   0  0  0  0  0  0  0  0  0  0  0  0
    4.7057  -19.8190    0.0000 C   0  0  0  0  0  0  0  0  0  0  0  0
    5.4210  -20.2300    0.0000 N   0  0  0  0  0  0  0  0  0  0  0  0
    6.1361  -19.8152    0.0000 C   0  0  0  0  0  0  0  0  0  0  0  0
    5.4154  -18.5780    0.0000 C   0  0  0  0  0  0  0  0  0  0  0  0
    5.4096  -17.7462    0.0000 N   0  0  0  0  0  0  0  0  0  0  0  0
    4.6984  -17.3281    0.0000 C   0  0  0  0  0  0  0  0  0  0  0  0
    4.7101  -16.5055    0.0000 C   0  0  0  0  0  0  0  0  0  0  0  0
    3.9997  -16.0876    0.0000 C   0  0  0  0  0  0  0  0  0  0  0  0
    3.2810  -16.4945    0.0000 C   0  0  0  0  0  0  0  0  0  0  0  0
    3.2772  -17.3238    0.0000 C   0  0  0  0  0  0  0  0  0  0  0  0
    3.9882  -17.7380    0.0000 C   0  0  0  0  0  0  0  0  0  0  0  0
    4.0065  -15.2626    0.0000 Br  0  0  0  0  0  0  0  0  0  0  0  0
    5.4291  -16.1010    0.0000 N   0  0  0  0  0  0  0  0  0  0  0  0
    6.1232  -18.9877    0.0000 N   0  0  0  0  0  0  0  0  0  0  0  0
    5.4383  -15.2761    0.0000 C   0  0  0  0  0  0  0  0  0  0  0  0
    6.1574  -14.8716    0.0000 C   0  0  0  0  0  0  0  0  0  0  0  0
    6.1389  -16.5215    0.0000 C   0  0  0  0  0  0  0  0  0  0  0  0
    6.8672  -15.2921    0.0000 N   0  0  0  0  0  0  0  0  0  0  0  0
    7.5862  -14.8876    0.0000 C   0  0  0  0  0  0  0  0  0  0  0  0
    6.8579  -16.1170    0.0000 C   0  0  0  0  0  0  0  0  0  0  0  0
  2  3  1  0
 11 12  2  0
  5  6  1  0
 12 13  1  0
  3  6  2  0
 13 14  2  0
  6  7  1  0
 14 15  1  0
  1  2  2  0
 15 16  2  0
 16 11  1  0
  7  8  2  0
 13 17  1  0
  8 19  1  0
 12 18  1  0
  5  4  2  0
 19  9  2  0
 18 20  1  0
  9  5  1  0
 20 21  1  0
  4  1  1  0
 18 22  1  0
  9 10  1  0
 21 23  1  0
 23 24  1  0
 10 11  1  0
 23 25  1  0
M  END
>  <ACTIVITY>  (20) 
40.74

$$$$

     RDKit          2D

 27 29  0  0  0  0  0  0  0  0999 V2000
   -5.7348  -17.7375    0.0000 N   0  0  0  0  0  0  0  0  0  0  0  0
   -5.7359  -18.5648    0.0000 C   0  0  0  0  0  0  0  0  0  0  0  0
   -5.0211  -18.9777    0.0000 C   0  0  0  0  0  0  0  0  0  0  0  0
   -5.0229  -17.3247    0.0000 C   0  0  0  0  0  0  0  0  0  0  0  0
   -4.3075  -17.7338    0.0000 C   0  0  0  0  0  0  0  0  0  0  0  0
   -4.3068  -18.5607    0.0000 C   0  0  0  0  0  0  0  0  0  0  0  0
   -3.5915  -18.9716    0.0000 N   0  0  0  0  0  0  0  0  0  0  0  0
   -2.8764  -18.5569    0.0000 C   0  0  0  0  0  0  0  0  0  0  0  0
   -3.5971  -17.3197    0.0000 C   0  0  0  0  0  0  0  0  0  0  0  0
   -3.6015  -16.4947    0.0000 N   0  0  0  0  0  0  0  0  0  0  0  0
   -2.8892  -16.0784    0.0000 C   0  0  0  0  0  0  0  0  0  0  0  0
   -2.1772  -16.4905    0.0000 C   0  0  0  0  0  0  0  0  0  0  0  0
   -1.4654  -16.0749    0.0000 C   0  0  0  0  0  0  0  0  0  0  0  0
   -1.4693  -15.2491    0.0000 C   0  0  0  0  0  0  0  0  0  0  0  0
   -2.1910  -14.8405    0.0000 C   0  0  0  0  0  0  0  0  0  0  0  0
   -2.8998  -15.2585    0.0000 C   0  0  0  0  0  0  0  0  0  0  0  0
   -0.7489  -16.4840    0.0000 Br  0  0  0  0  0  0  0  0  0  0  0  0
   -2.1756  -17.3155    0.0000 N   0  0  0  0  0  0  0  0  0  0  0  0
   -2.8893  -17.7294    0.0000 N   0  0  0  0  0  0  0  0  0  0  0  0
   -1.4603  -17.7267    0.0000 C   0  0  0  0  0  0  0  0  0  0  0  0
   -1.4588  -18.5517    0.0000 C   0  0  0  0  0  0  0  0  0  0  0  0
   -0.7435  -18.9628    0.0000 C   0  0  0  0  0  0  0  0  0  0  0  0
   -0.7420  -19.7878    0.0000 C   0  0  0  0  0  0  0  0  0  0  0  0
   -0.0267  -20.1990    0.0000 C   0  0  0  0  0  0  0  0  0  0  0  0
    0.6870  -19.7851    0.0000 N   0  0  0  0  0  0  0  0  0  0  0  0
    1.4022  -20.1962    0.0000 C   0  0  0  0  0  0  0  0  0  0  0  0
    0.6854  -18.9601    0.0000 C   0  0  0  0  0  0  0  0  0  0  0  0
  5  6  1  0
 12 13  2  0
  3  6  2  0
 13 14  1  0
  6  7  1  0
 14 15  2  0
  1  2  2  0
 15 16  1  0
 16 11  2  0
  7  8  2  0
 13 17  1  0
  8 19  1  0
 12 18  1  0
  5  4  2  0
 19  9  2  0
 18 20  1  0
  9  5  1  0
 20 21  1  0
  4  1  1  0
 21 22  1  0
  9 10  1  0
 22 23  1  0
 23 24  1  0
 10 11  1  0
 24 25  1  0
  2  3  1  0
 25 26  1  0
 11 12  1  0
 25 27  1  0
M  END
>  <ACTIVITY>  (21) 
8.51

$$$$

     RDKit          2D

 26 28  0  0  0  0  0  0  0  0999 V2000
    9.6819  -11.2000    0.0000 N   0  0  0  0  0  0  0  0  0  0  0  0
    9.6807  -12.0273    0.0000 C   0  0  0  0  0  0  0  0  0  0  0  0
   10.3956  -12.4402    0.0000 C   0  0  0  0  0  0  0  0  0  0  0  0
   10.3938  -10.7872    0.0000 C   0  0  0  0  0  0  0  0  0  0  0  0
   11.1091  -11.1963    0.0000 C   0  0  0  0  0  0  0  0  0  0  0  0
   11.1099  -12.0232    0.0000 C   0  0  0  0  0  0  0  0  0  0  0  0
   11.8252  -12.4341    0.0000 N   0  0  0  0  0  0  0  0  0  0  0  0
   12.5402  -12.0194    0.0000 C   0  0  0  0  0  0  0  0  0  0  0  0
   11.8196  -10.7822    0.0000 C   0  0  0  0  0  0  0  0  0  0  0  0
   11.8152   -9.9572    0.0000 N   0  0  0  0  0  0  0  0  0  0  0  0
   12.5275   -9.5409    0.0000 C   0  0  0  0  0  0  0  0  0  0  0  0
   13.2395   -9.9530    0.0000 C   0  0  0  0  0  0  0  0  0  0  0  0
   13.9513   -9.5374    0.0000 C   0  0  0  0  0  0  0  0  0  0  0  0
   13.9474   -8.7116    0.0000 C   0  0  0  0  0  0  0  0  0  0  0  0
   13.2257   -8.3030    0.0000 C   0  0  0  0  0  0  0  0  0  0  0  0
   12.5169   -8.7210    0.0000 C   0  0  0  0  0  0  0  0  0  0  0  0
   14.6677   -9.9465    0.0000 Br  0  0  0  0  0  0  0  0  0  0  0  0
   13.2411  -10.7780    0.0000 N   0  0  0  0  0  0  0  0  0  0  0  0
   12.5274  -11.1919    0.0000 N   0  0  0  0  0  0  0  0  0  0  0  0
   13.9563  -11.1892    0.0000 C   0  0  0  0  0  0  0  0  0  0  0  0
   13.9579  -12.0142    0.0000 C   0  0  0  0  0  0  0  0  0  0  0  0
   14.6731  -12.4253    0.0000 C   0  0  0  0  0  0  0  0  0  0  0  0
   14.6747  -13.2503    0.0000 C   0  0  0  0  0  0  0  0  0  0  0  0
   15.3900  -13.6615    0.0000 N   0  0  0  0  0  0  0  0  0  0  0  0
   15.3915  -14.4865    0.0000 C   0  0  0  0  0  0  0  0  0  0  0  0
   16.1036  -13.2476    0.0000 C   0  0  0  0  0  0  0  0  0  0  0  0
 11 12  2  0
  5  6  1  0
 12 13  1  0
  3  6  2  0
 13 14  2  0
  6  7  1  0
 14 15  1  0
  1  2  2  0
 15 16  2  0
 16 11  1  0
  7  8  2  0
 13 17  1  0
  8 19  1  0
 12 18  1  0
  5  4  2  0
 19  9  2  0
 18 20  1  0
  9  5  1  0
 20 21  1  0
  4  1  1  0
 21 22  1  0
  9 10  1  0
 22 23  1  0
 23 24  1  0
 10 11  1  0
 24 25  1  0
  2  3  1  0
 24 26  1  0
M  END
>  <ACTIVITY>  (22) 
7.41

$$$$

     RDKit          2D

 25 27  0  0  0  0  0  0  0  0999 V2000
    1.3736  -11.9875    0.0000 N   0  0  0  0  0  0  0  0  0  0  0  0
    1.3724  -12.8148    0.0000 C   0  0  0  0  0  0  0  0  0  0  0  0
    2.0872  -13.2277    0.0000 C   0  0  0  0  0  0  0  0  0  0  0  0
    2.0854  -11.5747    0.0000 C   0  0  0  0  0  0  0  0  0  0  0  0
    2.8008  -11.9838    0.0000 C   0  0  0  0  0  0  0  0  0  0  0  0
    2.8016  -12.8107    0.0000 C   0  0  0  0  0  0  0  0  0  0  0  0
    3.5169  -13.2216    0.0000 N   0  0  0  0  0  0  0  0  0  0  0  0
    4.2319  -12.8069    0.0000 C   0  0  0  0  0  0  0  0  0  0  0  0
    3.5112  -11.5697    0.0000 C   0  0  0  0  0  0  0  0  0  0  0  0
    3.5069  -10.7447    0.0000 N   0  0  0  0  0  0  0  0  0  0  0  0
    4.2191  -10.3284    0.0000 C   0  0  0  0  0  0  0  0  0  0  0  0
    4.9312  -10.7405    0.0000 C   0  0  0  0  0  0  0  0  0  0  0  0
    5.6430  -10.3249    0.0000 C   0  0  0  0  0  0  0  0  0  0  0  0
    5.6390   -9.4991    0.0000 C   0  0  0  0  0  0  0  0  0  0  0  0
    4.9174   -9.0905    0.0000 C   0  0  0  0  0  0  0  0  0  0  0  0
    4.2085   -9.5085    0.0000 C   0  0  0  0  0  0  0  0  0  0  0  0
    6.3594  -10.7340    0.0000 Br  0  0  0  0  0  0  0  0  0  0  0  0
    4.9327  -11.5655    0.0000 N   0  0  0  0  0  0  0  0  0  0  0  0
    4.2191  -11.9794    0.0000 N   0  0  0  0  0  0  0  0  0  0  0  0
    5.6480  -11.9767    0.0000 C   0  0  0  0  0  0  0  0  0  0  0  0
    5.6496  -12.8017    0.0000 C   0  0  0  0  0  0  0  0  0  0  0  0
    6.3648  -13.2128    0.0000 C   0  0  0  0  0  0  0  0  0  0  0  0
    6.3664  -14.0378    0.0000 N   0  0  0  0  0  0  0  0  0  0  0  0
    5.6527  -14.4517    0.0000 C   0  0  0  0  0  0  0  0  0  0  0  0
    7.0816  -14.4490    0.0000 C   0  0  0  0  0  0  0  0  0  0  0  0
  2  3  1  0
 11 12  2  0
  5  6  1  0
 12 13  1  0
  3  6  2  0
 13 14  2  0
  6  7  1  0
 14 15  1  0
  1  2  2  0
 15 16  2  0
 16 11  1  0
  7  8  2  0
 13 17  1  0
  8 19  1  0
 12 18  1  0
  5  4  2  0
 19  9  2  0
 18 20  1  0
  9  5  1  0
 20 21  1  0
  4  1  1  0
 21 22  1  0
  9 10  1  0
 22 23  1  0
 23 24  1  0
 10 11  1  0
 23 25  1  0
M  END
>  <ACTIVITY>  (23) 
8.91

$$$$

     RDKit          2D

 24 26  0  0  0  0  0  0  0  0999 V2000
   -5.6348  -11.9291    0.0000 N   0  0  0  0  0  0  0  0  0  0  0  0
   -5.6359  -12.7565    0.0000 C   0  0  0  0  0  0  0  0  0  0  0  0
   -4.9211  -13.1694    0.0000 C   0  0  0  0  0  0  0  0  0  0  0  0
   -4.9229  -11.5164    0.0000 C   0  0  0  0  0  0  0  0  0  0  0  0
   -4.2075  -11.9255    0.0000 C   0  0  0  0  0  0  0  0  0  0  0  0
   -4.2068  -12.7523    0.0000 C   0  0  0  0  0  0  0  0  0  0  0  0
   -3.4915  -13.1633    0.0000 N   0  0  0  0  0  0  0  0  0  0  0  0
   -2.7764  -12.7485    0.0000 C   0  0  0  0  0  0  0  0  0  0  0  0
   -3.4971  -11.5113    0.0000 C   0  0  0  0  0  0  0  0  0  0  0  0
   -3.5015  -10.6864    0.0000 N   0  0  0  0  0  0  0  0  0  0  0  0
   -2.7892  -10.2701    0.0000 C   0  0  0  0  0  0  0  0  0  0  0  0
   -2.0772  -10.6822    0.0000 C   0  0  0  0  0  0  0  0  0  0  0  0
   -1.3654  -10.2666    0.0000 C   0  0  0  0  0  0  0  0  0  0  0  0
   -1.3693   -9.4407    0.0000 C   0  0  0  0  0  0  0  0  0  0  0  0
   -2.0910   -9.0322    0.0000 C   0  0  0  0  0  0  0  0  0  0  0  0
   -2.7998   -9.4502    0.0000 C   0  0  0  0  0  0  0  0  0  0  0  0
   -0.6489  -10.6756    0.0000 Br  0  0  0  0  0  0  0  0  0  0  0  0
   -2.0756  -11.5072    0.0000 N   0  0  0  0  0  0  0  0  0  0  0  0
   -2.7893  -11.9210    0.0000 N   0  0  0  0  0  0  0  0  0  0  0  0
   -1.3603  -11.9183    0.0000 C   0  0  0  0  0  0  0  0  0  0  0  0
   -1.3588  -12.7433    0.0000 C   0  0  0  0  0  0  0  0  0  0  0  0
   -0.6435  -13.1545    0.0000 N   0  0  0  0  0  0  0  0  0  0  0  0
   -0.6420  -13.9795    0.0000 C   0  0  0  0  0  0  0  0  0  0  0  0
    0.0702  -12.7406    0.0000 C   0  0  0  0  0  0  0  0  0  0  0  0
 10 11  1  0
  2  3  1  0
 11 12  2  0
  5  6  1  0
 12 13  1  0
  3  6  2  0
 13 14  2  0
  6  7  1  0
 14 15  1  0
  1  2  2  0
 15 16  2  0
 16 11  1  0
  7  8  2  0
 13 17  1  0
  8 19  1  0
 12 18  1  0
  5  4  2  0
 19  9  2  0
 18 20  1  0
  9  5  1  0
 20 21  1  0
  4  1  1  0
 21 22  1  0
  9 10  1  0
 22 23  1  0
 22 24  1  0
M  END
>  <ACTIVITY>  (24) 
45.71

$$$$

     RDKit          2D

 25 27  0  0  0  0  0  0  0  0999 V2000
   10.5569   -6.6791    0.0000 N   0  0  0  0  0  0  0  0  0  0  0  0
   10.5557   -7.5065    0.0000 C   0  0  0  0  0  0  0  0  0  0  0  0
   11.2706   -7.9194    0.0000 C   0  0  0  0  0  0  0  0  0  0  0  0
   11.2688   -6.2664    0.0000 C   0  0  0  0  0  0  0  0  0  0  0  0
   11.9841   -6.6755    0.0000 C   0  0  0  0  0  0  0  0  0  0  0  0
   11.9849   -7.5023    0.0000 C   0  0  0  0  0  0  0  0  0  0  0  0
   12.7002   -7.9133    0.0000 N   0  0  0  0  0  0  0  0  0  0  0  0
   13.4152   -7.4985    0.0000 C   0  0  0  0  0  0  0  0  0  0  0  0
   12.6946   -6.2613    0.0000 C   0  0  0  0  0  0  0  0  0  0  0  0
   12.6888   -5.4295    0.0000 N   0  0  0  0  0  0  0  0  0  0  0  0
   11.9776   -5.0115    0.0000 C   0  0  0  0  0  0  0  0  0  0  0  0
   11.9892   -4.1888    0.0000 C   0  0  0  0  0  0  0  0  0  0  0  0
   11.2788   -3.7709    0.0000 C   0  0  0  0  0  0  0  0  0  0  0  0
   10.5602   -4.1779    0.0000 C   0  0  0  0  0  0  0  0  0  0  0  0
   10.5564   -5.0071    0.0000 C   0  0  0  0  0  0  0  0  0  0  0  0
   11.2674   -5.4214    0.0000 C   0  0  0  0  0  0  0  0  0  0  0  0
   11.2856   -2.9459    0.0000 Br  0  0  0  0  0  0  0  0  0  0  0  0
   12.7083   -3.7844    0.0000 N   0  0  0  0  0  0  0  0  0  0  0  0
   13.4024   -6.6710    0.0000 N   0  0  0  0  0  0  0  0  0  0  0  0
   12.7175   -2.9594    0.0000 C   0  0  0  0  0  0  0  0  0  0  0  0
   13.4181   -4.2048    0.0000 C   0  0  0  0  0  0  0  0  0  0  0  0
   13.4365   -2.5549    0.0000 C   0  0  0  0  0  0  0  0  0  0  0  0
   14.1371   -3.8003    0.0000 C   0  0  0  0  0  0  0  0  0  0  0  0
   13.4457   -1.7300    0.0000 O   0  0  0  0  0  0  0  0  0  0  0  0
   14.8469   -4.2208    0.0000 O   0  0  0  0  0  0  0  0  0  0  0  0
  2  3  1  0
 11 12  2  0
  5  6  1  0
 12 13  1  0
  3  6  2  0
 13 14  2  0
  6  7  1  0
 14 15  1  0
  1  2  2  0
 15 16  2  0
 16 11  1  0
  7  8  2  0
 13 17  1  0
  8 19  1  0
 12 18  1  0
  5  4  2  0
 19  9  2  0
 18 20  1  0
  9  5  1  0
 18 21  1  0
  4  1  1  0
 20 22  1  0
  9 10  1  0
 21 23  1  0
 22 24  1  0
 10 11  1  0
 23 25  1  0
M  END
>  <ACTIVITY>  (25) 
12.02

$$$$

     RDKit          2D

 23 25  0  0  0  0  0  0  0  0999 V2000
    3.1444   -6.8291    0.0000 N   0  0  0  0  0  0  0  0  0  0  0  0
    3.1432   -7.6565    0.0000 C   0  0  0  0  0  0  0  0  0  0  0  0
    3.8581   -8.0694    0.0000 C   0  0  0  0  0  0  0  0  0  0  0  0
    3.8563   -6.4164    0.0000 C   0  0  0  0  0  0  0  0  0  0  0  0
    4.5716   -6.8255    0.0000 C   0  0  0  0  0  0  0  0  0  0  0  0
    4.5724   -7.6523    0.0000 C   0  0  0  0  0  0  0  0  0  0  0  0
    5.2877   -8.0633    0.0000 N   0  0  0  0  0  0  0  0  0  0  0  0
    6.0027   -7.6485    0.0000 C   0  0  0  0  0  0  0  0  0  0  0  0
    5.2821   -6.4113    0.0000 C   0  0  0  0  0  0  0  0  0  0  0  0
    5.2763   -5.5795    0.0000 N   0  0  0  0  0  0  0  0  0  0  0  0
    4.5651   -5.1615    0.0000 C   0  0  0  0  0  0  0  0  0  0  0  0
    4.5767   -4.3388    0.0000 C   0  0  0  0  0  0  0  0  0  0  0  0
    3.8663   -3.9209    0.0000 C   0  0  0  0  0  0  0  0  0  0  0  0
    3.1477   -4.3279    0.0000 C   0  0  0  0  0  0  0  0  0  0  0  0
    3.1439   -5.1571    0.0000 C   0  0  0  0  0  0  0  0  0  0  0  0
    3.8549   -5.5714    0.0000 C   0  0  0  0  0  0  0  0  0  0  0  0
    3.8731   -3.0959    0.0000 Br  0  0  0  0  0  0  0  0  0  0  0  0
    5.2958   -3.9344    0.0000 N   0  0  0  0  0  0  0  0  0  0  0  0
    5.9899   -6.8210    0.0000 N   0  0  0  0  0  0  0  0  0  0  0  0
    5.3050   -3.1094    0.0000 C   0  0  0  0  0  0  0  0  0  0  0  0
    6.0240   -2.7049    0.0000 O   0  0  0  0  0  0  0  0  0  0  0  0
    6.0056   -4.3548    0.0000 C   0  0  0  0  0  0  0  0  0  0  0  0
    6.7246   -3.9503    0.0000 O   0  0  0  0  0  0  0  0  0  0  0  0
 10 11  1  0
  2  3  1  0
 11 12  2  0
  5  6  1  0
 12 13  1  0
  3  6  2  0
 13 14  2  0
  6  7  1  0
 14 15  1  0
  1  2  2  0
 15 16  2  0
 16 11  1  0
  7  8  2  0
 13 17  1  0
  8 19  1  0
 12 18  1  0
  5  4  2  0
 19  9  2  0
 18 20  1  0
  9  5  1  0
 20 21  1  0
  4  1  1  0
 18 22  1  0
  9 10  1  0
 22 23  1  0
M  END
>  <ACTIVITY>  (26) 
14.13

$$$$

     RDKit          2D

 25 27  0  0  0  0  0  0  0  0999 V2000
   -4.1639   -6.8791    0.0000 N   0  0  0  0  0  0  0  0  0  0  0  0
   -4.1651   -7.7065    0.0000 C   0  0  0  0  0  0  0  0  0  0  0  0
   -3.4503   -8.1194    0.0000 C   0  0  0  0  0  0  0  0  0  0  0  0
   -3.4521   -6.4664    0.0000 C   0  0  0  0  0  0  0  0  0  0  0  0
   -2.7367   -6.8755    0.0000 C   0  0  0  0  0  0  0  0  0  0  0  0
   -2.7359   -7.7023    0.0000 C   0  0  0  0  0  0  0  0  0  0  0  0
   -2.0206   -8.1133    0.0000 N   0  0  0  0  0  0  0  0  0  0  0  0
   -1.3056   -7.6985    0.0000 C   0  0  0  0  0  0  0  0  0  0  0  0
   -2.0263   -6.4613    0.0000 C   0  0  0  0  0  0  0  0  0  0  0  0
   -2.0320   -5.6295    0.0000 N   0  0  0  0  0  0  0  0  0  0  0  0
   -2.7433   -5.2115    0.0000 C   0  0  0  0  0  0  0  0  0  0  0  0
   -2.7316   -4.3888    0.0000 C   0  0  0  0  0  0  0  0  0  0  0  0
   -3.4420   -3.9709    0.0000 C   0  0  0  0  0  0  0  0  0  0  0  0
   -4.1607   -4.3779    0.0000 C   0  0  0  0  0  0  0  0  0  0  0  0
   -4.1645   -5.2071    0.0000 C   0  0  0  0  0  0  0  0  0  0  0  0
   -3.4534   -5.6214    0.0000 C   0  0  0  0  0  0  0  0  0  0  0  0
   -3.4352   -3.1459    0.0000 Br  0  0  0  0  0  0  0  0  0  0  0  0
   -2.0126   -3.9844    0.0000 N   0  0  0  0  0  0  0  0  0  0  0  0
   -1.3184   -6.8710    0.0000 N   0  0  0  0  0  0  0  0  0  0  0  0
   -2.0033   -3.1594    0.0000 C   0  0  0  0  0  0  0  0  0  0  0  0
   -1.2843   -2.7549    0.0000 C   0  0  0  0  0  0  0  0  0  0  0  0
   -0.5745   -3.1754    0.0000 O   0  0  0  0  0  0  0  0  0  0  0  0
   -1.2751   -1.9300    0.0000 C   0  0  0  0  0  0  0  0  0  0  0  0
   -0.5560   -1.5255    0.0000 O   0  0  0  0  0  0  0  0  0  0  0  0
   -1.3028   -4.4048    0.0000 C   0  0  0  0  0  0  0  0  0  0  0  0
  2  3  1  0
 11 12  2  0
  5  6  1  0
 12 13  1  0
  3  6  2  0
 13 14  2  0
  6  7  1  0
 14 15  1  0
  1  2  2  0
 15 16  2  0
 16 11  1  0
  7  8  2  0
 13 17  1  0
  8 19  1  0
 12 18  1  0
  5  4  2  0
 19  9  2  0
 18 20  1  0
  9  5  1  0
 20 21  1  0
  4  1  1  0
 21 22  1  0
  9 10  1  0
 21 23  1  0
 23 24  1  0
 10 11  1  0
 18 25  1  0
M  END
>  <ACTIVITY>  (27) 
3.24

$$$$

     RDKit          2D

 24 26  0  0  0  0  0  0  0  0999 V2000
   11.4319    0.6000    0.0000 N   0  0  0  0  0  0  0  0  0  0  0  0
   11.4307   -0.2273    0.0000 C   0  0  0  0  0  0  0  0  0  0  0  0
   12.1456   -0.6402    0.0000 C   0  0  0  0  0  0  0  0  0  0  0  0
   12.1438    1.0128    0.0000 C   0  0  0  0  0  0  0  0  0  0  0  0
   12.8591    0.6037    0.0000 C   0  0  0  0  0  0  0  0  0  0  0  0
   12.8599   -0.2232    0.0000 C   0  0  0  0  0  0  0  0  0  0  0  0
   13.5752   -0.6341    0.0000 N   0  0  0  0  0  0  0  0  0  0  0  0
   14.2902   -0.2194    0.0000 C   0  0  0  0  0  0  0  0  0  0  0  0
   13.5696    1.0178    0.0000 C   0  0  0  0  0  0  0  0  0  0  0  0
   13.5652    1.8428    0.0000 N   0  0  0  0  0  0  0  0  0  0  0  0
   14.2775    2.2591    0.0000 C   0  0  0  0  0  0  0  0  0  0  0  0
   14.9895    1.8470    0.0000 C   0  0  0  0  0  0  0  0  0  0  0  0
   15.7013    2.2626    0.0000 C   0  0  0  0  0  0  0  0  0  0  0  0
   15.6974    3.0884    0.0000 C   0  0  0  0  0  0  0  0  0  0  0  0
   14.9757    3.4970    0.0000 C   0  0  0  0  0  0  0  0  0  0  0  0
   14.2669    3.0790    0.0000 C   0  0  0  0  0  0  0  0  0  0  0  0
   16.4177    1.8535    0.0000 Br  0  0  0  0  0  0  0  0  0  0  0  0
   14.9911    1.0220    0.0000 N   0  0  0  0  0  0  0  0  0  0  0  0
   14.2774    0.6081    0.0000 N   0  0  0  0  0  0  0  0  0  0  0  0
   15.7063    0.6108    0.0000 C   0  0  0  0  0  0  0  0  0  0  0  0
   15.7079   -0.2142    0.0000 C   0  0  0  0  0  0  0  0  0  0  0  0
   14.9942   -0.6280    0.0000 O   0  0  0  0  0  0  0  0  0  0  0  0
   16.4231   -0.6253    0.0000 C   0  0  0  0  0  0  0  0  0  0  0  0
   16.4247   -1.4503    0.0000 O   0  0  0  0  0  0  0  0  0  0  0  0
 10 11  1  0
  2  3  1  0
 11 12  2  0
  5  6  1  0
 12 13  1  0
  3  6  2  0
 13 14  2  0
  6  7  1  0
 14 15  1  0
  1  2  2  0
 15 16  2  0
 16 11  1  0
  7  8  2  0
 13 17  1  0
  8 19  1  0
 12 18  1  0
  5  4  2  0
 19  9  2  0
 18 20  1  0
  9  5  1  0
 20 21  1  0
  4  1  1  0
 21 22  1  0
  9 10  1  0
 21 23  1  0
 23 24  1  0
M  END
>  <ACTIVITY>  (28) 
0.933

$$$$

     RDKit          2D

 23 25  0  0  0  0  0  0  0  0999 V2000
    4.3319   -0.7750    0.0000 N   0  0  0  0  0  0  0  0  0  0  0  0
    4.3307   -1.6023    0.0000 C   0  0  0  0  0  0  0  0  0  0  0  0
    5.0456   -2.0152    0.0000 C   0  0  0  0  0  0  0  0  0  0  0  0
    5.0438   -0.3622    0.0000 C   0  0  0  0  0  0  0  0  0  0  0  0
    5.7591   -0.7713    0.0000 C   0  0  0  0  0  0  0  0  0  0  0  0
    5.7599   -1.5982    0.0000 C   0  0  0  0  0  0  0  0  0  0  0  0
    6.4752   -2.0091    0.0000 N   0  0  0  0  0  0  0  0  0  0  0  0
    7.1902   -1.5944    0.0000 C   0  0  0  0  0  0  0  0  0  0  0  0
    6.4696   -0.3572    0.0000 C   0  0  0  0  0  0  0  0  0  0  0  0
    6.4652    0.4678    0.0000 N   0  0  0  0  0  0  0  0  0  0  0  0
    5.7528    0.8930    0.0000 C   0  0  0  0  0  0  0  0  0  0  0  0
    5.7648    1.7156    0.0000 C   0  0  0  0  0  0  0  0  0  0  0  0
    5.0546    2.1339    0.0000 C   0  0  0  0  0  0  0  0  0  0  0  0
    4.3357    1.7273    0.0000 C   0  0  0  0  0  0  0  0  0  0  0  0
    4.3316    0.8980    0.0000 C   0  0  0  0  0  0  0  0  0  0  0  0
    5.0424    0.4834    0.0000 C   0  0  0  0  0  0  0  0  0  0  0  0
    5.0618    2.9589    0.0000 Br  0  0  0  0  0  0  0  0  0  0  0  0
    6.4840    2.1198    0.0000 N   0  0  0  0  0  0  0  0  0  0  0  0
    7.1774   -0.7669    0.0000 N   0  0  0  0  0  0  0  0  0  0  0  0
    6.4936    2.9447    0.0000 C   0  0  0  0  0  0  0  0  0  0  0  0
    7.2128    3.3489    0.0000 C   0  0  0  0  0  0  0  0  0  0  0  0
    7.2224    4.1761    0.0000 O   0  0  0  0  0  0  0  0  0  0  0  0
    7.1936    1.6990    0.0000 C   0  0  0  0  0  0  0  0  0  0  0  0
 10 11  1  0
  2  3  1  0
 11 12  2  0
  5  6  1  0
 12 13  1  0
  3  6  2  0
 13 14  2  0
  6  7  1  0
 14 15  1  0
  1  2  2  0
 15 16  2  0
 16 11  1  0
  7  8  2  0
 13 17  1  0
  8 19  1  0
 12 18  1  0
  5  4  2  0
 19  9  2  0
 18 20  1  0
  9  5  1  0
 20 21  1  0
  4  1  1  0
 21 22  1  0
  9 10  1  0
 18 23  1  0
M  END
>  <ACTIVITY>  (29) 
2.63

$$$$

     RDKit          2D

 22 24  0  0  0  0  0  0  0  0999 V2000
   -4.9556    0.5292    0.0000 N   0  0  0  0  0  0  0  0  0  0  0  0
   -4.9568   -0.2982    0.0000 C   0  0  0  0  0  0  0  0  0  0  0  0
   -4.2419   -0.7110    0.0000 C   0  0  0  0  0  0  0  0  0  0  0  0
   -4.2437    0.9420    0.0000 C   0  0  0  0  0  0  0  0  0  0  0  0
   -3.5284    0.5328    0.0000 C   0  0  0  0  0  0  0  0  0  0  0  0
   -3.5276   -0.2940    0.0000 C   0  0  0  0  0  0  0  0  0  0  0  0
   -2.8123   -0.7050    0.0000 N   0  0  0  0  0  0  0  0  0  0  0  0
   -2.0973   -0.2902    0.0000 C   0  0  0  0  0  0  0  0  0  0  0  0
   -2.8179    0.9470    0.0000 C   0  0  0  0  0  0  0  0  0  0  0  0
   -2.8223    1.7720    0.0000 N   0  0  0  0  0  0  0  0  0  0  0  0
   -2.1100    2.1883    0.0000 C   0  0  0  0  0  0  0  0  0  0  0  0
   -1.3980    1.7761    0.0000 C   0  0  0  0  0  0  0  0  0  0  0  0
   -0.6862    2.1917    0.0000 C   0  0  0  0  0  0  0  0  0  0  0  0
   -0.6901    3.0176    0.0000 C   0  0  0  0  0  0  0  0  0  0  0  0
   -1.4118    3.4261    0.0000 C   0  0  0  0  0  0  0  0  0  0  0  0
   -2.1206    3.0082    0.0000 C   0  0  0  0  0  0  0  0  0  0  0  0
    0.0302    1.7827    0.0000 Br  0  0  0  0  0  0  0  0  0  0  0  0
   -1.3964    0.9511    0.0000 N   0  0  0  0  0  0  0  0  0  0  0  0
   -2.1101    0.5373    0.0000 N   0  0  0  0  0  0  0  0  0  0  0  0
   -0.6812    0.5400    0.0000 C   0  0  0  0  0  0  0  0  0  0  0  0
   -0.6796   -0.2850    0.0000 C   0  0  0  0  0  0  0  0  0  0  0  0
    0.0356   -0.6961    0.0000 O   0  0  0  0  0  0  0  0  0  0  0  0
  9 10  1  0
 10 11  1  0
  2  3  1  0
 11 12  2  0
  5  6  1  0
 12 13  1  0
  3  6  2  0
 13 14  2  0
  6  7  1  0
 14 15  1  0
  1  2  2  0
 15 16  2  0
 16 11  1  0
  7  8  2  0
 13 17  1  0
  8 19  1  0
 12 18  1  0
  5  4  2  0
 19  9  2  0
 18 20  1  0
  9  5  1  0
 20 21  1  0
  4  1  1  0
 21 22  1  0
M  END
>  <ACTIVITY>  (30) 
0.245

$$$$

     RDKit          2D

 26 29  0  0  0  0  0  0  0  0999 V2000
    5.1292   -0.4375    0.0000 C   0  0  0  0  0  0  0  0  0  0  0  0
    5.6542   -0.1375    0.0000 C   0  0  0  0  0  0  0  0  0  0  0  0
    4.6167   -0.1375    0.0000 N   0  0  0  0  0  0  0  0  0  0  0  0
    4.1000   -0.4375    0.0000 C   0  0  0  0  0  0  0  0  0  0  0  0
    6.1750   -0.4375    0.0000 N   0  0  0  0  0  0  0  0  0  0  0  0
    1.3792   -1.1667    0.0000 N   0  0  0  0  0  0  0  0  0  0  0  0
    5.6500    0.4625    0.0000 N   0  0  0  0  0  0  0  0  0  0  0  0
    5.1292   -1.0375    0.0000 C   0  0  0  0  0  0  0  0  0  0  0  0
    4.1000   -1.0375    0.0000 N   0  0  0  0  0  0  0  0  0  0  0  0
    1.4667   -0.1917    0.0000 N   0  0  0  0  0  0  0  0  0  0  0  0
    1.0667   -0.6417    0.0000 C   0  0  0  0  0  0  0  0  0  0  0  0
    2.0167   -0.4375    0.0000 C   0  0  0  0  0  0  0  0  0  0  0  0
    5.6542   -1.3375    0.0000 N   0  0  0  0  0  0  0  0  0  0  0  0
    6.1750   -1.0375    0.0000 C   0  0  0  0  0  0  0  0  0  0  0  0
    1.9542   -1.0375    0.0000 C   0  0  0  0  0  0  0  0  0  0  0  0
    4.6167   -1.3375    0.0000 C   0  0  0  0  0  0  0  0  0  0  0  0
    6.1667    0.7625    0.0000 C   0  0  0  0  0  0  0  0  0  0  0  0
    3.5792   -0.1375    0.0000 N   0  0  0  0  0  0  0  0  0  0  0  0
    2.5375   -0.1375    0.0000 C   0  0  0  0  0  0  0  0  0  0  0  0
    6.6875    0.4708    0.0000 C   0  0  0  0  0  0  0  0  0  0  0  0
    3.0542   -0.4375    0.0000 C   0  0  0  0  0  0  0  0  0  0  0  0
    7.2042    0.7708    0.0000 C   0  0  0  0  0  0  0  0  0  0  0  0
    6.6792    1.6708    0.0000 C   0  0  0  0  0  0  0  0  0  0  0  0
    6.1667    1.3625    0.0000 C   0  0  0  0  0  0  0  0  0  0  0  0
    7.2042    1.3708    0.0000 C   0  0  0  0  0  0  0  0  0  0  0  0
    7.7250    0.4708    0.0000 C   0  0  0  0  0  0  0  0  0  0  0  0
  2  1  1  0
  3  1  2  0
  4  3  1  0
  5  2  2  0
  6 15  1  0
  7  2  1  0
  8  1  1  0
  9 16  1  0
 10 12  1  0
 11 10  2  0
 12 19  1  0
 13  8  1  0
 14 13  2  0
 15 12  2  0
 16  8  2  0
 17  7  1  0
 18  4  1  0
 19 21  1  0
 20 17  2  0
 21 18  1  0
 22 20  1  0
 23 24  2  0
 24 17  1  0
 25 23  1  0
 26 22  1  0
  9  4  2  0
  5 14  1  0
 25 22  2  0
  6 11  1  0
M  END
>  <ACTIVITY>  (31) 
3.02

$$$$

     RDKit          2D

 27 30  0  0  0  0  0  0  0  0999 V2000
    2.5500   -0.2042    0.0000 C   0  0  0  0  0  0  0  0  0  0  0  0
    3.0667    0.0958    0.0000 C   0  0  0  0  0  0  0  0  0  0  0  0
    2.0292    0.0958    0.0000 N   0  0  0  0  0  0  0  0  0  0  0  0
    1.5167   -0.2042    0.0000 C   0  0  0  0  0  0  0  0  0  0  0  0
    3.5917   -0.2042    0.0000 N   0  0  0  0  0  0  0  0  0  0  0  0
    3.0667    0.6958    0.0000 N   0  0  0  0  0  0  0  0  0  0  0  0
    2.5500   -0.8042    0.0000 C   0  0  0  0  0  0  0  0  0  0  0  0
    1.5167   -0.8042    0.0000 N   0  0  0  0  0  0  0  0  0  0  0  0
    3.0667   -1.1042    0.0000 N   0  0  0  0  0  0  0  0  0  0  0  0
   -0.5625   -0.2042    0.0000 N   0  0  0  0  0  0  0  0  0  0  0  0
    3.5917   -0.8042    0.0000 C   0  0  0  0  0  0  0  0  0  0  0  0
    2.0292   -1.1042    0.0000 C   0  0  0  0  0  0  0  0  0  0  0  0
    3.5792    0.9958    0.0000 C   0  0  0  0  0  0  0  0  0  0  0  0
    0.9917    0.0958    0.0000 N   0  0  0  0  0  0  0  0  0  0  0  0
   -1.6083   -0.8042    0.0000 O   0  0  0  0  0  0  0  0  0  0  0  0
    4.1042    0.6958    0.0000 C   0  0  0  0  0  0  0  0  0  0  0  0
    4.6250    0.9958    0.0000 C   0  0  0  0  0  0  0  0  0  0  0  0
    0.4750   -0.2042    0.0000 C   0  0  0  0  0  0  0  0  0  0  0  0
   -0.0458    0.0958    0.0000 C   0  0  0  0  0  0  0  0  0  0  0  0
   -0.5708   -0.8042    0.0000 C   0  0  0  0  0  0  0  0  0  0  0  0
   -1.0875    0.0958    0.0000 C   0  0  0  0  0  0  0  0  0  0  0  0
    4.0917    1.8958    0.0000 C   0  0  0  0  0  0  0  0  0  0  0  0
    3.5792    1.5958    0.0000 C   0  0  0  0  0  0  0  0  0  0  0  0
   -1.0833   -1.1042    0.0000 C   0  0  0  0  0  0  0  0  0  0  0  0
   -1.6083   -0.2042    0.0000 C   0  0  0  0  0  0  0  0  0  0  0  0
    4.6167    1.5958    0.0000 C   0  0  0  0  0  0  0  0  0  0  0  0
    5.1417    0.6958    0.0000 C   0  0  0  0  0  0  0  0  0  0  0  0
  2  1  1  0
  3  1  2  0
  4  3  1  0
  5  2  2  0
  6  2  1  0
  7  1  1  0
  8 12  1  0
  9  7  1  0
 10 19  1  0
 11  9  2  0
 12  7  2  0
 13  6  1  0
 14  4  1  0
 15 25  1  0
 16 13  2  0
 17 16  1  0
 18 14  1  0
 19 18  1  0
 20 10  1  0
 21 10  1  0
 22 23  2  0
 23 13  1  0
 24 20  1  0
 25 21  1  0
 26 22  1  0
 27 17  1  0
  8  4  2  0
  5 11  1  0
 26 17  2  0
 24 15  1  0
M  END
>  <ACTIVITY>  (32) 
2.34

$$$$

     RDKit          2D

 21 23  0  0  0  0  0  0  0  0999 V2000
    2.0292    0.0958    0.0000 N   0  0  0  0  0  0  0  0  0  0  0  0
    2.5500   -0.2042    0.0000 C   0  0  0  0  0  0  0  0  0  0  0  0
    1.5167   -0.2042    0.0000 C   0  0  0  0  0  0  0  0  0  0  0  0
    3.0667    0.0958    0.0000 C   0  0  0  0  0  0  0  0  0  0  0  0
    1.5167   -0.8042    0.0000 N   0  0  0  0  0  0  0  0  0  0  0  0
    3.5917   -0.2042    0.0000 N   0  0  0  0  0  0  0  0  0  0  0  0
    3.0667    0.6958    0.0000 N   0  0  0  0  0  0  0  0  0  0  0  0
    2.5500   -0.8042    0.0000 C   0  0  0  0  0  0  0  0  0  0  0  0
    3.0667   -1.1042    0.0000 N   0  0  0  0  0  0  0  0  0  0  0  0
    0.9917    0.0958    0.0000 N   0  0  0  0  0  0  0  0  0  0  0  0
    3.5917   -0.8042    0.0000 C   0  0  0  0  0  0  0  0  0  0  0  0
    2.0292   -1.1042    0.0000 C   0  0  0  0  0  0  0  0  0  0  0  0
    3.5792    0.9958    0.0000 C   0  0  0  0  0  0  0  0  0  0  0  0
    4.1042    0.6958    0.0000 C   0  0  0  0  0  0  0  0  0  0  0  0
    4.6250    0.9958    0.0000 C   0  0  0  0  0  0  0  0  0  0  0  0
    4.0917    1.8958    0.0000 C   0  0  0  0  0  0  0  0  0  0  0  0
    0.9917    0.6958    0.0000 C   0  0  0  0  0  0  0  0  0  0  0  0
    0.4750   -0.2042    0.0000 C   0  0  0  0  0  0  0  0  0  0  0  0
    3.5792    1.5958    0.0000 C   0  0  0  0  0  0  0  0  0  0  0  0
    4.6167    1.5958    0.0000 C   0  0  0  0  0  0  0  0  0  0  0  0
    5.1417    0.6958    0.0000 C   0  0  0  0  0  0  0  0  0  0  0  0
  2  1  2  0
  3  1  1  0
  4  2  1  0
  5  3  2  0
  6  4  2  0
  7  4  1  0
  8  2  1  0
  9  8  1  0
 10  3  1  0
 11  9  2  0
 12  5  1  0
 13  7  1  0
 14 13  2  0
 15 14  1  0
 16 19  2  0
 17 10  1  0
 18 10  1  0
 19 13  1  0
 20 16  1  0
 21 15  1  0
  8 12  2  0
 11  6  1  0
 20 15  2  0
M  END
>  <ACTIVITY>  (33) 
4.07

$$$$

     RDKit          2D

 20 22  0  0  0  0  0  0  0  0999 V2000
    6.4250   -2.6167    0.0000 C   0  0  0  0  0  0  0  0  0  0  0  0
    6.9417   -2.3167    0.0000 C   0  0  0  0  0  0  0  0  0  0  0  0
    5.9042   -2.3167    0.0000 N   0  0  0  0  0  0  0  0  0  0  0  0
    5.3917   -2.6167    0.0000 C   0  0  0  0  0  0  0  0  0  0  0  0
    7.4667   -2.6167    0.0000 N   0  0  0  0  0  0  0  0  0  0  0  0
    6.9417   -1.7167    0.0000 N   0  0  0  0  0  0  0  0  0  0  0  0
    6.4250   -3.2167    0.0000 C   0  0  0  0  0  0  0  0  0  0  0  0
    5.3917   -3.2167    0.0000 N   0  0  0  0  0  0  0  0  0  0  0  0
    6.9417   -3.5167    0.0000 N   0  0  0  0  0  0  0  0  0  0  0  0
    7.4667   -3.2167    0.0000 C   0  0  0  0  0  0  0  0  0  0  0  0
    5.9042   -3.5167    0.0000 C   0  0  0  0  0  0  0  0  0  0  0  0
    7.4542   -1.4167    0.0000 C   0  0  0  0  0  0  0  0  0  0  0  0
    4.8667   -2.3167    0.0000 N   0  0  0  0  0  0  0  0  0  0  0  0
    7.9792   -1.7125    0.0000 C   0  0  0  0  0  0  0  0  0  0  0  0
    8.5000   -1.4125    0.0000 C   0  0  0  0  0  0  0  0  0  0  0  0
    7.9667   -0.5125    0.0000 C   0  0  0  0  0  0  0  0  0  0  0  0
    7.4542   -0.8167    0.0000 C   0  0  0  0  0  0  0  0  0  0  0  0
    8.4917   -0.8125    0.0000 C   0  0  0  0  0  0  0  0  0  0  0  0
    4.8667   -1.7167    0.0000 C   0  0  0  0  0  0  0  0  0  0  0  0
    9.0167   -1.7125    0.0000 C   0  0  0  0  0  0  0  0  0  0  0  0
  2  1  1  0
  3  1  2  0
  4  3  1  0
  5  2  2  0
  6  2  1  0
  7  1  1  0
  8 11  1  0
  9  7  1  0
 10  9  2  0
 11  7  2  0
 12  6  1  0
 13  4  1  0
 14 12  2  0
 15 14  1  0
 16 17  2  0
 17 12  1  0
 18 16  1  0
 19 13  1  0
 20 15  1  0
  8  4  2  0
 10  5  1  0
 18 15  2  0
M  END
>  <ACTIVITY>  (34) 
4.37

$$$$

     RDKit          2D

 19 21  0  0  0  0  0  0  0  0999 V2000
    6.4250   -2.6167    0.0000 C   0  0  0  0  0  0  0  0  0  0  0  0
    6.9417   -2.3167    0.0000 C   0  0  0  0  0  0  0  0  0  0  0  0
    5.9042   -2.3167    0.0000 N   0  0  0  0  0  0  0  0  0  0  0  0
    5.3917   -2.6167    0.0000 C   0  0  0  0  0  0  0  0  0  0  0  0
    7.4667   -2.6167    0.0000 N   0  0  0  0  0  0  0  0  0  0  0  0
    6.9417   -1.7167    0.0000 N   0  0  0  0  0  0  0  0  0  0  0  0
    6.4250   -3.2167    0.0000 C   0  0  0  0  0  0  0  0  0  0  0  0
    5.3917   -3.2167    0.0000 N   0  0  0  0  0  0  0  0  0  0  0  0
    6.9417   -3.5167    0.0000 N   0  0  0  0  0  0  0  0  0  0  0  0
    7.4667   -3.2167    0.0000 C   0  0  0  0  0  0  0  0  0  0  0  0
    5.9042   -3.5167    0.0000 C   0  0  0  0  0  0  0  0  0  0  0  0
    7.4542   -1.4167    0.0000 C   0  0  0  0  0  0  0  0  0  0  0  0
    4.8667   -2.3167    0.0000 N   0  0  0  0  0  0  0  0  0  0  0  0
    7.9792   -1.7125    0.0000 C   0  0  0  0  0  0  0  0  0  0  0  0
    8.5000   -1.4125    0.0000 C   0  0  0  0  0  0  0  0  0  0  0  0
    7.9667   -0.5125    0.0000 C   0  0  0  0  0  0  0  0  0  0  0  0
    7.4542   -0.8167    0.0000 C   0  0  0  0  0  0  0  0  0  0  0  0
    8.4917   -0.8125    0.0000 C   0  0  0  0  0  0  0  0  0  0  0  0
    9.0167   -1.7125    0.0000 C   0  0  0  0  0  0  0  0  0  0  0  0
  2  1  1  0
  3  1  2  0
  4  3  1  0
  5  2  2  0
  6  2  1  0
  7  1  1  0
  8 11  1  0
  9  7  1  0
 10  9  2  0
 11  7  2  0
 12  6  1  0
 13  4  1  0
 14 12  2  0
 15 14  1  0
 16 17  2  0
 17 12  1  0
 18 16  1  0
 19 15  1  0
  8  4  2  0
 10  5  1  0
 18 15  2  0
M  END
>  <ACTIVITY>  (35) 
17.38

$$$$

     RDKit          2D

 19 21  0  0  0  0  0  0  0  0999 V2000
    6.4250   -2.6167    0.0000 C   0  0  0  0  0  0  0  0  0  0  0  0
    6.9417   -2.3167    0.0000 C   0  0  0  0  0  0  0  0  0  0  0  0
    5.9042   -2.3167    0.0000 N   0  0  0  0  0  0  0  0  0  0  0  0
    5.3917   -2.6167    0.0000 C   0  0  0  0  0  0  0  0  0  0  0  0
    7.4667   -2.6167    0.0000 N   0  0  0  0  0  0  0  0  0  0  0  0
    6.9417   -1.7167    0.0000 N   0  0  0  0  0  0  0  0  0  0  0  0
    6.4250   -3.2167    0.0000 C   0  0  0  0  0  0  0  0  0  0  0  0
    5.3917   -3.2167    0.0000 N   0  0  0  0  0  0  0  0  0  0  0  0
    6.9417   -3.5167    0.0000 N   0  0  0  0  0  0  0  0  0  0  0  0
    7.4667   -3.2167    0.0000 C   0  0  0  0  0  0  0  0  0  0  0  0
    5.9042   -3.5167    0.0000 C   0  0  0  0  0  0  0  0  0  0  0  0
    7.4542   -1.4167    0.0000 C   0  0  0  0  0  0  0  0  0  0  0  0
    4.8667   -2.3167    0.0000 Cl  0  0  0  0  0  0  0  0  0  0  0  0
    7.9792   -1.7125    0.0000 C   0  0  0  0  0  0  0  0  0  0  0  0
    8.5000   -1.4125    0.0000 C   0  0  0  0  0  0  0  0  0  0  0  0
    7.9667   -0.5125    0.0000 C   0  0  0  0  0  0  0  0  0  0  0  0
    7.4542   -0.8167    0.0000 C   0  0  0  0  0  0  0  0  0  0  0  0
    8.4917   -0.8125    0.0000 C   0  0  0  0  0  0  0  0  0  0  0  0
    9.0167   -1.7125    0.0000 C   0  0  0  0  0  0  0  0  0  0  0  0
  2  1  1  0
  3  1  2  0
  4  3  1  0
  5  2  2  0
  6  2  1  0
  7  1  1  0
  8 11  1  0
  9  7  1  0
 10  9  2  0
 11  7  2  0
 12  6  1  0
 13  4  1  0
 14 12  2  0
 15 14  1  0
 16 17  2  0
 17 12  1  0
 18 16  1  0
 19 15  1  0
  8  4  2  0
 10  5  1  0
 18 15  2  0
M  END
>  <ACTIVITY>  (36) 
380.19

$$$$

     RDKit          2D

 26 29  0  0  0  0  0  0  0  0999 V2000
   -2.4014  -11.7500    0.0000 C   0  0  0  0  0  0  0  0  0  0  0  0
   -2.4026  -12.5773    0.0000 N   0  0  0  0  0  0  0  0  0  0  0  0
   -1.6878  -12.9902    0.0000 C   0  0  0  0  0  0  0  0  0  0  0  0
   -1.6896  -11.3372    0.0000 N   0  0  0  0  0  0  0  0  0  0  0  0
   -0.9742  -11.7463    0.0000 C   0  0  0  0  0  0  0  0  0  0  0  0
   -0.9734  -12.5732    0.0000 C   0  0  0  0  0  0  0  0  0  0  0  0
   -0.2581  -12.9841    0.0000 N   0  0  0  0  0  0  0  0  0  0  0  0
    0.4569  -12.5694    0.0000 C   0  0  0  0  0  0  0  0  0  0  0  0
   -0.2638  -11.3322    0.0000 C   0  0  0  0  0  0  0  0  0  0  0  0
   -0.2681  -10.5072    0.0000 N   0  0  0  0  0  0  0  0  0  0  0  0
    0.4441  -10.0909    0.0000 C   0  0  0  0  0  0  0  0  0  0  0  0
    1.1562  -10.5030    0.0000 C   0  0  0  0  0  0  0  0  0  0  0  0
    1.8680  -10.0874    0.0000 C   0  0  0  0  0  0  0  0  0  0  0  0
    1.8640   -9.2616    0.0000 C   0  0  0  0  0  0  0  0  0  0  0  0
    1.1424   -8.8530    0.0000 C   0  0  0  0  0  0  0  0  0  0  0  0
    0.4335   -9.2710    0.0000 C   0  0  0  0  0  0  0  0  0  0  0  0
    0.4441  -11.7419    0.0000 N   0  0  0  0  0  0  0  0  0  0  0  0
    2.5844  -10.4965    0.0000 Br  0  0  0  0  0  0  0  0  0  0  0  0
   -3.1160  -11.3376    0.0000 N   0  0  0  0  0  0  0  0  0  0  0  0
   -3.1162  -10.5126    0.0000 C   0  0  0  0  0  0  0  0  0  0  0  0
   -3.8308  -10.1003    0.0000 C   0  0  0  0  0  0  0  0  0  0  0  0
   -3.8310   -9.2753    0.0000 N   0  0  0  0  0  0  0  0  0  0  0  0
   -3.1660   -8.7915    0.0000 C   0  0  0  0  0  0  0  0  0  0  0  0
   -3.4211   -8.0069    0.0000 C   0  0  0  0  0  0  0  0  0  0  0  0
   -4.2462   -8.0071    0.0000 N   0  0  0  0  0  0  0  0  0  0  0  0
   -4.5008   -8.7918    0.0000 C   0  0  0  0  0  0  0  0  0  0  0  0
 11 12  2  0
  5  6  1  0
 12 13  1  0
  3  6  2  0
 13 14  2  0
  6  7  1  0
 14 15  1  0
  1  2  2  0
 15 16  2  0
 16 11  1  0
  7  8  2  0
  8 17  1  0
 13 18  1  0
  5  4  2  0
  1 19  1  0
 17  9  2  0
 19 20  1  0
  9  5  1  0
 20 21  1  0
  4  1  1  0
 21 22  1  0
 22 23  1  0
  9 10  1  0
 10 11  1  0
  2  3  1  0
 23 24  2  0
 24 25  1  0
 25 26  2  0
 26 22  1  0
M  END
>  <ACTIVITY>  (37) 
2.34

$$$$

     RDKit          2D

 26 29  0  0  0  0  0  0  0  0999 V2000
    3.9292   -1.1875    0.0000 C   0  0  0  0  0  0  0  0  0  0  0  0
    4.4500   -0.8875    0.0000 C   0  0  0  0  0  0  0  0  0  0  0  0
    3.4125   -0.8875    0.0000 N   0  0  0  0  0  0  0  0  0  0  0  0
    2.8917   -1.1875    0.0000 C   0  0  0  0  0  0  0  0  0  0  0  0
    4.9667   -1.1875    0.0000 N   0  0  0  0  0  0  0  0  0  0  0  0
    0.1750   -1.9167    0.0000 N   0  0  0  0  0  0  0  0  0  0  0  0
    4.4417   -0.2875    0.0000 N   0  0  0  0  0  0  0  0  0  0  0  0
    3.9292   -1.7875    0.0000 C   0  0  0  0  0  0  0  0  0  0  0  0
    2.8917   -1.7875    0.0000 N   0  0  0  0  0  0  0  0  0  0  0  0
    0.2667   -0.9417    0.0000 N   0  0  0  0  0  0  0  0  0  0  0  0
   -0.1333   -1.3917    0.0000 C   0  0  0  0  0  0  0  0  0  0  0  0
    0.8167   -1.1875    0.0000 C   0  0  0  0  0  0  0  0  0  0  0  0
    4.4500   -2.0875    0.0000 N   0  0  0  0  0  0  0  0  0  0  0  0
    4.9667   -1.7875    0.0000 C   0  0  0  0  0  0  0  0  0  0  0  0
    0.7542   -1.7875    0.0000 C   0  0  0  0  0  0  0  0  0  0  0  0
    3.4125   -2.0875    0.0000 C   0  0  0  0  0  0  0  0  0  0  0  0
    4.9625    0.0125    0.0000 C   0  0  0  0  0  0  0  0  0  0  0  0
    5.4792   -0.2792    0.0000 C   0  0  0  0  0  0  0  0  0  0  0  0
    2.3750   -0.8875    0.0000 N   0  0  0  0  0  0  0  0  0  0  0  0
    1.3292   -0.8875    0.0000 C   0  0  0  0  0  0  0  0  0  0  0  0
    6.0042    0.0208    0.0000 C   0  0  0  0  0  0  0  0  0  0  0  0
    1.8542   -1.1875    0.0000 C   0  0  0  0  0  0  0  0  0  0  0  0
    6.5167   -0.2792    0.0000 Br  0  0  0  0  0  0  0  0  0  0  0  0
    5.4750    0.9208    0.0000 C   0  0  0  0  0  0  0  0  0  0  0  0
    4.9625    0.6125    0.0000 C   0  0  0  0  0  0  0  0  0  0  0  0
    6.0000    0.6208    0.0000 C   0  0  0  0  0  0  0  0  0  0  0  0
  2  1  1  0
  3  1  2  0
  4  3  1  0
  5  2  2  0
  6 15  1  0
  7  2  1  0
  8  1  1  0
  9 16  1  0
 10 12  1  0
 11 10  2  0
 12 20  1  0
 13  8  1  0
 14 13  2  0
 15 12  2  0
 16  8  2  0
 17  7  1  0
 18 17  2  0
 19  4  1  0
 20 22  1  0
 21 18  1  0
 22 19  1  0
 23 21  1  0
 24 25  2  0
 25 17  1  0
 26 24  1  0
  9  4  2  0
  5 14  1  0
 26 21  2  0
  6 11  1  0
M  END
>  <ACTIVITY>  (38) 
0.251

$$$$

     RDKit          2D

 28 31  0  0  0  0  0  0  0  0999 V2000
    2.9625   -1.4250    0.0000 C   0  0  0  0  0  0  0  0  0  0  0  0
    3.4792   -1.1250    0.0000 C   0  0  0  0  0  0  0  0  0  0  0  0
    2.4417   -1.1250    0.0000 N   0  0  0  0  0  0  0  0  0  0  0  0
    1.9292   -1.4250    0.0000 C   0  0  0  0  0  0  0  0  0  0  0  0
    4.0042   -1.4250    0.0000 N   0  0  0  0  0  0  0  0  0  0  0  0
    3.4792   -0.5250    0.0000 N   0  0  0  0  0  0  0  0  0  0  0  0
    2.9625   -2.0250    0.0000 C   0  0  0  0  0  0  0  0  0  0  0  0
    1.9292   -2.0250    0.0000 N   0  0  0  0  0  0  0  0  0  0  0  0
    3.4792   -2.3250    0.0000 N   0  0  0  0  0  0  0  0  0  0  0  0
   -0.6708   -1.1250    0.0000 N   0  0  0  0  0  0  0  0  0  0  0  0
    4.0042   -2.0250    0.0000 C   0  0  0  0  0  0  0  0  0  0  0  0
    2.4417   -2.3250    0.0000 C   0  0  0  0  0  0  0  0  0  0  0  0
    3.9917   -0.2167    0.0000 C   0  0  0  0  0  0  0  0  0  0  0  0
    4.5167   -0.5167    0.0000 C   0  0  0  0  0  0  0  0  0  0  0  0
    1.4042   -1.1250    0.0000 N   0  0  0  0  0  0  0  0  0  0  0  0
   -1.7083   -0.5250    0.0000 O   0  0  0  0  0  0  0  0  0  0  0  0
    5.0375   -0.2167    0.0000 C   0  0  0  0  0  0  0  0  0  0  0  0
    5.5542   -0.5167    0.0000 Br  0  0  0  0  0  0  0  0  0  0  0  0
   -0.1500   -1.4250    0.0000 C   0  0  0  0  0  0  0  0  0  0  0  0
    0.3667   -1.1250    0.0000 C   0  0  0  0  0  0  0  0  0  0  0  0
   -1.1958   -1.4250    0.0000 C   0  0  0  0  0  0  0  0  0  0  0  0
   -0.6708   -0.5250    0.0000 C   0  0  0  0  0  0  0  0  0  0  0  0
    4.5042    0.6833    0.0000 C   0  0  0  0  0  0  0  0  0  0  0  0
    0.8875   -1.4250    0.0000 C   0  0  0  0  0  0  0  0  0  0  0  0
    3.9917    0.3750    0.0000 C   0  0  0  0  0  0  0  0  0  0  0  0
   -1.7083   -1.1250    0.0000 C   0  0  0  0  0  0  0  0  0  0  0  0
   -1.1958   -0.2167    0.0000 C   0  0  0  0  0  0  0  0  0  0  0  0
    5.0292    0.3833    0.0000 C   0  0  0  0  0  0  0  0  0  0  0  0
  2  1  1  0
  3  1  2  0
  4  3  1  0
  5  2  2  0
  6  2  1  0
  7  1  1  0
  8 12  1  0
  9  7  1  0
 10 19  1  0
 11  9  2  0
 12  7  2  0
 13  6  1  0
 14 13  2  0
 15  4  1  0
 16 27  1  0
 17 14  1  0
 18 17  1  0
 19 20  1  0
 20 24  1  0
 21 10  1  0
 22 10  1  0
 23 25  2  0
 24 15  1  0
 25 13  1  0
 26 21  1  0
 27 22  1  0
 28 23  1  0
  8  4  2  0
  5 11  1  0
 28 17  2  0
 26 16  1  0
M  END
>  <ACTIVITY>  (39) 
2.95

$$$$

     RDKit          2D

 27 30  0  0  0  0  0  0  0  0999 V2000
    2.9625   -1.4250    0.0000 C   0  0  0  0  0  0  0  0  0  0  0  0
    3.4792   -1.1250    0.0000 C   0  0  0  0  0  0  0  0  0  0  0  0
    2.4417   -1.1250    0.0000 N   0  0  0  0  0  0  0  0  0  0  0  0
    1.9292   -1.4250    0.0000 C   0  0  0  0  0  0  0  0  0  0  0  0
    4.0042   -1.4250    0.0000 N   0  0  0  0  0  0  0  0  0  0  0  0
    3.4792   -0.5250    0.0000 N   0  0  0  0  0  0  0  0  0  0  0  0
    2.9625   -2.0250    0.0000 C   0  0  0  0  0  0  0  0  0  0  0  0
    1.9292   -2.0250    0.0000 N   0  0  0  0  0  0  0  0  0  0  0  0
    3.4792   -2.3250    0.0000 N   0  0  0  0  0  0  0  0  0  0  0  0
   -0.1500   -1.4250    0.0000 N   0  0  0  0  0  0  0  0  0  0  0  0
    4.0042   -2.0250    0.0000 C   0  0  0  0  0  0  0  0  0  0  0  0
    2.4417   -2.3250    0.0000 C   0  0  0  0  0  0  0  0  0  0  0  0
    3.9917   -0.2167    0.0000 C   0  0  0  0  0  0  0  0  0  0  0  0
    4.5167   -0.5167    0.0000 C   0  0  0  0  0  0  0  0  0  0  0  0
    1.4042   -1.1250    0.0000 N   0  0  0  0  0  0  0  0  0  0  0  0
   -1.1958   -2.0250    0.0000 O   0  0  0  0  0  0  0  0  0  0  0  0
    5.0375   -0.2167    0.0000 C   0  0  0  0  0  0  0  0  0  0  0  0
    5.5542   -0.5167    0.0000 Br  0  0  0  0  0  0  0  0  0  0  0  0
    0.8875   -1.4250    0.0000 C   0  0  0  0  0  0  0  0  0  0  0  0
    0.3667   -1.1250    0.0000 C   0  0  0  0  0  0  0  0  0  0  0  0
   -0.1583   -2.0250    0.0000 C   0  0  0  0  0  0  0  0  0  0  0  0
   -0.6750   -1.1250    0.0000 C   0  0  0  0  0  0  0  0  0  0  0  0
    4.5042    0.6833    0.0000 C   0  0  0  0  0  0  0  0  0  0  0  0
    3.9917    0.3750    0.0000 C   0  0  0  0  0  0  0  0  0  0  0  0
   -0.6708   -2.3250    0.0000 C   0  0  0  0  0  0  0  0  0  0  0  0
   -1.1958   -1.4250    0.0000 C   0  0  0  0  0  0  0  0  0  0  0  0
    5.0292    0.3833    0.0000 C   0  0  0  0  0  0  0  0  0  0  0  0
  2  1  1  0
  3  1  2  0
  4  3  1  0
  5  2  2  0
  6  2  1  0
  7  1  1  0
  8 12  1  0
  9  7  1  0
 10 20  1  0
 11  9  2  0
 12  7  2  0
 13  6  1  0
 14 13  2  0
 15  4  1  0
 16 26  1  0
 17 14  1  0
 18 17  1  0
 19 15  1  0
 20 19  1  0
 21 10  1  0
 22 10  1  0
 23 24  2  0
 24 13  1  0
 25 21  1  0
 26 22  1  0
 27 23  1  0
  8  4  2  0
  5 11  1  0
 27 17  2  0
 25 16  1  0
M  END
>  <ACTIVITY>  (40) 
0.813

$$$$

     RDKit          2D

 20 22  0  0  0  0  0  0  0  0999 V2000
    2.9625   -1.4250    0.0000 C   0  0  0  0  0  0  0  0  0  0  0  0
    3.4792   -1.1250    0.0000 C   0  0  0  0  0  0  0  0  0  0  0  0
    2.4417   -1.1250    0.0000 N   0  0  0  0  0  0  0  0  0  0  0  0
    1.9292   -1.4250    0.0000 C   0  0  0  0  0  0  0  0  0  0  0  0
    4.0042   -1.4250    0.0000 N   0  0  0  0  0  0  0  0  0  0  0  0
    3.4792   -0.5250    0.0000 N   0  0  0  0  0  0  0  0  0  0  0  0
    2.9625   -2.0250    0.0000 C   0  0  0  0  0  0  0  0  0  0  0  0
    1.9292   -2.0250    0.0000 N   0  0  0  0  0  0  0  0  0  0  0  0
    3.4792   -2.3250    0.0000 N   0  0  0  0  0  0  0  0  0  0  0  0
    4.0042   -2.0250    0.0000 C   0  0  0  0  0  0  0  0  0  0  0  0
    2.4417   -2.3250    0.0000 C   0  0  0  0  0  0  0  0  0  0  0  0
    3.9917   -0.2167    0.0000 C   0  0  0  0  0  0  0  0  0  0  0  0
    4.5167   -0.5167    0.0000 C   0  0  0  0  0  0  0  0  0  0  0  0
    5.0375   -0.2167    0.0000 C   0  0  0  0  0  0  0  0  0  0  0  0
    1.4042   -1.1250    0.0000 O   0  0  0  0  0  0  0  0  0  0  0  0
    5.5542   -0.5167    0.0000 Br  0  0  0  0  0  0  0  0  0  0  0  0
    4.5042    0.6833    0.0000 C   0  0  0  0  0  0  0  0  0  0  0  0
    3.9917    0.3750    0.0000 C   0  0  0  0  0  0  0  0  0  0  0  0
    5.0292    0.3833    0.0000 C   0  0  0  0  0  0  0  0  0  0  0  0
    1.4042   -0.5250    0.0000 C   0  0  0  0  0  0  0  0  0  0  0  0
  2  1  1  0
  3  1  2  0
  4  3  1  0
  5  2  2  0
  6  2  1  0
  7  1  1  0
  8 11  1  0
  9  7  1  0
 10  9  2  0
 11  7  2  0
 12  6  1  0
 13 12  2  0
 14 13  1  0
 15  4  1  0
 16 14  1  0
 17 18  2  0
 18 12  1  0
 19 17  1  0
 20 15  1  0
  8  4  2  0
 10  5  1  0
 19 14  2  0
M  END
>  <ACTIVITY>  (41) 
3.8

$$$$

     RDKit          2D

 21 23  0  0  0  0  0  0  0  0999 V2000
    2.4417   -1.1250    0.0000 N   0  0  0  0  0  0  0  0  0  0  0  0
    2.9625   -1.4250    0.0000 C   0  0  0  0  0  0  0  0  0  0  0  0
    1.9292   -1.4250    0.0000 C   0  0  0  0  0  0  0  0  0  0  0  0
    3.4792   -1.1250    0.0000 C   0  0  0  0  0  0  0  0  0  0  0  0
    1.9292   -2.0250    0.0000 N   0  0  0  0  0  0  0  0  0  0  0  0
    4.0042   -1.4250    0.0000 N   0  0  0  0  0  0  0  0  0  0  0  0
    3.4792   -0.5250    0.0000 N   0  0  0  0  0  0  0  0  0  0  0  0
    2.9625   -2.0250    0.0000 C   0  0  0  0  0  0  0  0  0  0  0  0
    3.4792   -2.3250    0.0000 N   0  0  0  0  0  0  0  0  0  0  0  0
    1.4042   -1.1250    0.0000 N   0  0  0  0  0  0  0  0  0  0  0  0
    4.0042   -2.0250    0.0000 C   0  0  0  0  0  0  0  0  0  0  0  0
    2.4417   -2.3250    0.0000 C   0  0  0  0  0  0  0  0  0  0  0  0
    3.9917   -0.2167    0.0000 C   0  0  0  0  0  0  0  0  0  0  0  0
    4.5167   -0.5167    0.0000 C   0  0  0  0  0  0  0  0  0  0  0  0
    5.0375   -0.2167    0.0000 C   0  0  0  0  0  0  0  0  0  0  0  0
    5.5542   -0.5167    0.0000 Br  0  0  0  0  0  0  0  0  0  0  0  0
    4.5042    0.6833    0.0000 C   0  0  0  0  0  0  0  0  0  0  0  0
    1.4042   -0.5250    0.0000 C   0  0  0  0  0  0  0  0  0  0  0  0
    0.8875   -1.4250    0.0000 C   0  0  0  0  0  0  0  0  0  0  0  0
    3.9917    0.3750    0.0000 C   0  0  0  0  0  0  0  0  0  0  0  0
    5.0292    0.3833    0.0000 C   0  0  0  0  0  0  0  0  0  0  0  0
  2  1  2  0
  3  1  1  0
  4  2  1  0
  5  3  2  0
  6  4  2  0
  7  4  1  0
  8  2  1  0
  9  8  1  0
 10  3  1  0
 11  9  2  0
 12  5  1  0
 13  7  1  0
 14 13  2  0
 15 14  1  0
 16 15  1  0
 17 20  2  0
 18 10  1  0
 19 10  1  0
 20 13  1  0
 21 17  1  0
  8 12  2  0
 11  6  1  0
 21 15  2  0
M  END
>  <ACTIVITY>  (42) 
0.955

$$$$

     RDKit          2D

 20 22  0  0  0  0  0  0  0  0999 V2000
    2.9625   -1.4250    0.0000 C   0  0  0  0  0  0  0  0  0  0  0  0
    3.4792   -1.1250    0.0000 C   0  0  0  0  0  0  0  0  0  0  0  0
    2.4417   -1.1250    0.0000 N   0  0  0  0  0  0  0  0  0  0  0  0
    1.9292   -1.4250    0.0000 C   0  0  0  0  0  0  0  0  0  0  0  0
    4.0042   -1.4250    0.0000 N   0  0  0  0  0  0  0  0  0  0  0  0
    3.4792   -0.5250    0.0000 N   0  0  0  0  0  0  0  0  0  0  0  0
    2.9625   -2.0250    0.0000 C   0  0  0  0  0  0  0  0  0  0  0  0
    1.9292   -2.0250    0.0000 N   0  0  0  0  0  0  0  0  0  0  0  0
    3.4792   -2.3250    0.0000 N   0  0  0  0  0  0  0  0  0  0  0  0
    4.0042   -2.0250    0.0000 C   0  0  0  0  0  0  0  0  0  0  0  0
    2.4417   -2.3250    0.0000 C   0  0  0  0  0  0  0  0  0  0  0  0
    3.9917   -0.2167    0.0000 C   0  0  0  0  0  0  0  0  0  0  0  0
    4.5167   -0.5167    0.0000 C   0  0  0  0  0  0  0  0  0  0  0  0
    1.4042   -1.1250    0.0000 N   0  0  0  0  0  0  0  0  0  0  0  0
    5.0375   -0.2167    0.0000 C   0  0  0  0  0  0  0  0  0  0  0  0
    5.5542   -0.5167    0.0000 Br  0  0  0  0  0  0  0  0  0  0  0  0
    4.5042    0.6833    0.0000 C   0  0  0  0  0  0  0  0  0  0  0  0
    3.9917    0.3750    0.0000 C   0  0  0  0  0  0  0  0  0  0  0  0
    5.0292    0.3833    0.0000 C   0  0  0  0  0  0  0  0  0  0  0  0
    1.4042   -0.5250    0.0000 C   0  0  0  0  0  0  0  0  0  0  0  0
  2  1  1  0
  3  1  2  0
  4  3  1  0
  5  2  2  0
  6  2  1  0
  7  1  1  0
  8 11  1  0
  9  7  1  0
 10  9  2  0
 11  7  2  0
 12  6  1  0
 13 12  2  0
 14  4  1  0
 15 13  1  0
 16 15  1  0
 17 18  2  0
 18 12  1  0
 19 17  1  0
 20 14  1  0
  8  4  2  0
 10  5  1  0
 19 15  2  0
M  END
>  <ACTIVITY>  (43) 
0.776

$$$$

     RDKit          2D

 19 21  0  0  0  0  0  0  0  0999 V2000
    2.9625   -1.4250    0.0000 C   0  0  0  0  0  0  0  0  0  0  0  0
    3.4792   -1.1250    0.0000 C   0  0  0  0  0  0  0  0  0  0  0  0
    2.4417   -1.1250    0.0000 N   0  0  0  0  0  0  0  0  0  0  0  0
    1.9292   -1.4250    0.0000 C   0  0  0  0  0  0  0  0  0  0  0  0
    4.0042   -1.4250    0.0000 N   0  0  0  0  0  0  0  0  0  0  0  0
    3.4792   -0.5250    0.0000 N   0  0  0  0  0  0  0  0  0  0  0  0
    2.9625   -2.0250    0.0000 C   0  0  0  0  0  0  0  0  0  0  0  0
    1.9292   -2.0250    0.0000 N   0  0  0  0  0  0  0  0  0  0  0  0
    3.4792   -2.3250    0.0000 N   0  0  0  0  0  0  0  0  0  0  0  0
    4.0042   -2.0250    0.0000 C   0  0  0  0  0  0  0  0  0  0  0  0
    2.4417   -2.3250    0.0000 C   0  0  0  0  0  0  0  0  0  0  0  0
    3.9917   -0.2167    0.0000 C   0  0  0  0  0  0  0  0  0  0  0  0
    4.5167   -0.5167    0.0000 C   0  0  0  0  0  0  0  0  0  0  0  0
    1.4042   -1.1250    0.0000 N   0  0  0  0  0  0  0  0  0  0  0  0
    5.0375   -0.2167    0.0000 C   0  0  0  0  0  0  0  0  0  0  0  0
    5.5542   -0.5167    0.0000 Br  0  0  0  0  0  0  0  0  0  0  0  0
    4.5042    0.6833    0.0000 C   0  0  0  0  0  0  0  0  0  0  0  0
    3.9917    0.3750    0.0000 C   0  0  0  0  0  0  0  0  0  0  0  0
    5.0292    0.3833    0.0000 C   0  0  0  0  0  0  0  0  0  0  0  0
  2  1  1  0
  3  1  2  0
  4  3  1  0
  5  2  2  0
  6  2  1  0
  7  1  1  0
  8 11  1  0
  9  7  1  0
 10  9  2  0
 11  7  2  0
 12  6  1  0
 13 12  2  0
 14  4  1  0
 15 13  1  0
 16 15  1  0
 17 18  2  0
 18 12  1  0
 19 17  1  0
  8  4  2  0
 10  5  1  0
 19 15  2  0
M  END
>  <ACTIVITY>  (44) 
1.51

$$$$

     RDKit          2D

 19 21  0  0  0  0  0  0  0  0999 V2000
    2.9625   -1.4250    0.0000 C   0  0  0  0  0  0  0  0  0  0  0  0
    3.4792   -1.1250    0.0000 C   0  0  0  0  0  0  0  0  0  0  0  0
    2.4417   -1.1250    0.0000 N   0  0  0  0  0  0  0  0  0  0  0  0
    1.9292   -1.4250    0.0000 C   0  0  0  0  0  0  0  0  0  0  0  0
    4.0042   -1.4250    0.0000 N   0  0  0  0  0  0  0  0  0  0  0  0
    3.4792   -0.5250    0.0000 N   0  0  0  0  0  0  0  0  0  0  0  0
    2.9625   -2.0250    0.0000 C   0  0  0  0  0  0  0  0  0  0  0  0
    1.9292   -2.0250    0.0000 N   0  0  0  0  0  0  0  0  0  0  0  0
    3.4792   -2.3250    0.0000 N   0  0  0  0  0  0  0  0  0  0  0  0
    4.0042   -2.0250    0.0000 C   0  0  0  0  0  0  0  0  0  0  0  0
    2.4417   -2.3250    0.0000 C   0  0  0  0  0  0  0  0  0  0  0  0
    3.9917   -0.2167    0.0000 C   0  0  0  0  0  0  0  0  0  0  0  0
    4.5167   -0.5167    0.0000 C   0  0  0  0  0  0  0  0  0  0  0  0
    1.4042   -1.1250    0.0000 Cl  0  0  0  0  0  0  0  0  0  0  0  0
    5.0375   -0.2167    0.0000 C   0  0  0  0  0  0  0  0  0  0  0  0
    5.5542   -0.5167    0.0000 Br  0  0  0  0  0  0  0  0  0  0  0  0
    4.5042    0.6833    0.0000 C   0  0  0  0  0  0  0  0  0  0  0  0
    3.9917    0.3750    0.0000 C   0  0  0  0  0  0  0  0  0  0  0  0
    5.0292    0.3833    0.0000 C   0  0  0  0  0  0  0  0  0  0  0  0
  2  1  1  0
  3  1  2  0
  4  3  1  0
  5  2  2  0
  6  2  1  0
  7  1  1  0
  8 11  1  0
  9  7  1  0
 10  9  2  0
 11  7  2  0
 12  6  1  0
 13 12  2  0
 14  4  1  0
 15 13  1  0
 16 15  1  0
 17 18  2  0
 18 12  1  0
 19 17  1  0
  8  4  2  0
 10  5  1  0
 19 15  2  0
M  END
>  <ACTIVITY>  (45) 
83.18

$$$$

     RDKit          2D

 19 21  0  0  0  0  0  0  0  0999 V2000
    2.9625   -1.4250    0.0000 C   0  0  0  0  0  0  0  0  0  0  0  0
    3.4792   -1.1250    0.0000 C   0  0  0  0  0  0  0  0  0  0  0  0
    2.4417   -1.1250    0.0000 N   0  0  0  0  0  0  0  0  0  0  0  0
    1.9292   -1.4250    0.0000 C   0  0  0  0  0  0  0  0  0  0  0  0
    4.0042   -1.4250    0.0000 N   0  0  0  0  0  0  0  0  0  0  0  0
    2.9625   -2.0250    0.0000 C   0  0  0  0  0  0  0  0  0  0  0  0
    1.9292   -2.0250    0.0000 N   0  0  0  0  0  0  0  0  0  0  0  0
    3.4792   -0.5250    0.0000 N   0  0  0  0  0  0  0  0  0  0  0  0
    3.4792   -2.3250    0.0000 N   0  0  0  0  0  0  0  0  0  0  0  0
    4.0042   -2.0250    0.0000 C   0  0  0  0  0  0  0  0  0  0  0  0
    2.4417   -2.3250    0.0000 C   0  0  0  0  0  0  0  0  0  0  0  0
    1.4042   -1.1250    0.0000 N   0  0  0  0  0  0  0  0  0  0  0  0
    3.9917   -0.2167    0.0000 C   0  0  0  0  0  0  0  0  0  0  0  0
    1.4000   -0.5250    0.0000 C   0  0  0  0  0  0  0  0  0  0  0  0
    4.5167   -0.5167    0.0000 C   0  0  0  0  0  0  0  0  0  0  0  0
    3.9917    0.3750    0.0000 C   0  0  0  0  0  0  0  0  0  0  0  0
    4.5042    0.6833    0.0000 C   0  0  0  0  0  0  0  0  0  0  0  0
    5.0375   -0.2167    0.0000 C   0  0  0  0  0  0  0  0  0  0  0  0
    5.0292    0.3833    0.0000 C   0  0  0  0  0  0  0  0  0  0  0  0
  2  1  1  0
  3  1  2  0
  4  3  1  0
  5  2  2  0
  6  1  1  0
  7 11  1  0
  8  2  1  0
  9  6  1  0
 10  9  2  0
 11  6  2  0
 12  4  1  0
 13  8  1  0
 14 12  1  0
 15 13  2  0
 16 13  1  0
 17 16  2  0
 18 15  1  0
 19 17  1  0
  7  4  2  0
 10  5  1  0
 19 18  2  0
M  END
>  <ACTIVITY>  (46) 
13.18

$$$$

     RDKit          2D

 20 22  0  0  0  0  0  0  0  0999 V2000
    2.9625   -3.3542    0.0000 C   0  0  0  0  0  0  0  0  0  0  0  0
    2.9625   -2.5292    0.0000 C   0  0  0  0  0  0  0  0  0  0  0  0
    3.6667   -2.1125    0.0000 C   0  0  0  0  0  0  0  0  0  0  0  0
    2.2417   -3.7667    0.0000 N   0  0  0  0  0  0  0  0  0  0  0  0
    4.3875   -2.5167    0.0000 N   0  0  0  0  0  0  0  0  0  0  0  0
    3.6792   -3.7667    0.0000 N   0  0  0  0  0  0  0  0  0  0  0  0
    3.6667   -1.2875    0.0000 N   0  0  0  0  0  0  0  0  0  0  0  0
    2.2417   -2.1167    0.0000 C   0  0  0  0  0  0  0  0  0  0  0  0
    1.5292   -3.3542    0.0000 C   0  0  0  0  0  0  0  0  0  0  0  0
    4.3917   -3.3500    0.0000 C   0  0  0  0  0  0  0  0  0  0  0  0
    4.3792   -0.8667    0.0000 C   0  0  0  0  0  0  0  0  0  0  0  0
    5.0917   -1.2792    0.0000 C   0  0  0  0  0  0  0  0  0  0  0  0
    1.5292   -2.5292    0.0000 C   0  0  0  0  0  0  0  0  0  0  0  0
    5.8042   -0.8667    0.0000 C   0  0  0  0  0  0  0  0  0  0  0  0
    6.5167   -1.2792    0.0000 Br  0  0  0  0  0  0  0  0  0  0  0  0
    0.8167   -3.7667    0.0000 O   0  0  0  0  0  0  0  0  0  0  0  0
    5.0792    0.3708    0.0000 C   0  0  0  0  0  0  0  0  0  0  0  0
    4.3667   -0.0542    0.0000 C   0  0  0  0  0  0  0  0  0  0  0  0
    5.8000   -0.0417    0.0000 C   0  0  0  0  0  0  0  0  0  0  0  0
    0.1042   -3.3542    0.0000 C   0  0  0  0  0  0  0  0  0  0  0  0
  2  1  1  0
  3  2  1  0
  4  1  2  0
  5 10  1  0
  6  1  1  0
  7  3  1  0
  8  2  2  0
  9  4  1  0
 10  6  2  0
 11  7  1  0
 12 11  2  0
 13  9  2  0
 14 12  1  0
 15 14  1  0
 16  9  1  0
 17 18  2  0
 18 11  1  0
 19 17  1  0
 20 16  1  0
  3  5  2  0
 13  8  1  0
 19 14  2  0
M  END
>  <ACTIVITY>  (47) 
263.03

$$$$

     RDKit          2D

 21 23  0  0  0  0  0  0  0  0999 V2000
    2.2417   -3.7667    0.0000 N   0  0  0  0  0  0  0  0  0  0  0  0
    2.9625   -3.3542    0.0000 C   0  0  0  0  0  0  0  0  0  0  0  0
    2.9625   -2.5292    0.0000 C   0  0  0  0  0  0  0  0  0  0  0  0
    3.6667   -2.1125    0.0000 C   0  0  0  0  0  0  0  0  0  0  0  0
    1.5292   -3.3542    0.0000 C   0  0  0  0  0  0  0  0  0  0  0  0
    4.3875   -2.5167    0.0000 N   0  0  0  0  0  0  0  0  0  0  0  0
    3.6792   -3.7667    0.0000 N   0  0  0  0  0  0  0  0  0  0  0  0
    3.6667   -1.2875    0.0000 N   0  0  0  0  0  0  0  0  0  0  0  0
    2.2417   -2.1167    0.0000 C   0  0  0  0  0  0  0  0  0  0  0  0
    4.3917   -3.3500    0.0000 C   0  0  0  0  0  0  0  0  0  0  0  0
    0.8167   -3.7667    0.0000 N   0  0  0  0  0  0  0  0  0  0  0  0
    1.5292   -2.5292    0.0000 C   0  0  0  0  0  0  0  0  0  0  0  0
    4.3792   -0.8667    0.0000 C   0  0  0  0  0  0  0  0  0  0  0  0
    5.0917   -1.2792    0.0000 C   0  0  0  0  0  0  0  0  0  0  0  0
    5.8042   -0.8667    0.0000 C   0  0  0  0  0  0  0  0  0  0  0  0
    6.5167   -1.2792    0.0000 Br  0  0  0  0  0  0  0  0  0  0  0  0
    5.0792    0.3708    0.0000 C   0  0  0  0  0  0  0  0  0  0  0  0
    4.3667   -0.0542    0.0000 C   0  0  0  0  0  0  0  0  0  0  0  0
    0.1042   -3.3542    0.0000 C   0  0  0  0  0  0  0  0  0  0  0  0
    0.8167   -4.5917    0.0000 C   0  0  0  0  0  0  0  0  0  0  0  0
    5.8000   -0.0417    0.0000 C   0  0  0  0  0  0  0  0  0  0  0  0
  2  1  2  0
  3  2  1  0
  4  3  1  0
  5  1  1  0
  6 10  1  0
  7  2  1  0
  8  4  1  0
  9 12  1  0
 10  7  2  0
 11  5  1  0
 12  5  2  0
 13  8  1  0
 14 13  2  0
 15 14  1  0
 16 15  1  0
 17 18  2  0
 18 13  1  0
 19 11  1  0
 20 11  1  0
 21 17  1  0
  9  3  2  0
  4  6  2  0
 21 15  2  0
M  END
>  <ACTIVITY>  (48) 
331.13

$$$$

     RDKit          2D

 20 22  0  0  0  0  0  0  0  0999 V2000
    2.9625   -3.3542    0.0000 C   0  0  0  0  0  0  0  0  0  0  0  0
    2.9625   -2.5292    0.0000 C   0  0  0  0  0  0  0  0  0  0  0  0
    3.6667   -2.1125    0.0000 C   0  0  0  0  0  0  0  0  0  0  0  0
    2.2417   -3.7667    0.0000 N   0  0  0  0  0  0  0  0  0  0  0  0
    4.3875   -2.5167    0.0000 N   0  0  0  0  0  0  0  0  0  0  0  0
    3.6792   -3.7667    0.0000 N   0  0  0  0  0  0  0  0  0  0  0  0
    3.6667   -1.2875    0.0000 N   0  0  0  0  0  0  0  0  0  0  0  0
    1.5292   -3.3542    0.0000 C   0  0  0  0  0  0  0  0  0  0  0  0
    2.2417   -2.1167    0.0000 C   0  0  0  0  0  0  0  0  0  0  0  0
    4.3917   -3.3500    0.0000 C   0  0  0  0  0  0  0  0  0  0  0  0
    4.3792   -0.8667    0.0000 C   0  0  0  0  0  0  0  0  0  0  0  0
    5.0917   -1.2792    0.0000 C   0  0  0  0  0  0  0  0  0  0  0  0
    1.5292   -2.5292    0.0000 C   0  0  0  0  0  0  0  0  0  0  0  0
    0.8167   -3.7667    0.0000 N   0  0  0  0  0  0  0  0  0  0  0  0
    5.8042   -0.8667    0.0000 C   0  0  0  0  0  0  0  0  0  0  0  0
    6.5167   -1.2792    0.0000 Br  0  0  0  0  0  0  0  0  0  0  0  0
    5.0792    0.3708    0.0000 C   0  0  0  0  0  0  0  0  0  0  0  0
    4.3667   -0.0542    0.0000 C   0  0  0  0  0  0  0  0  0  0  0  0
    5.8000   -0.0417    0.0000 C   0  0  0  0  0  0  0  0  0  0  0  0
    0.1042   -3.3542    0.0000 C   0  0  0  0  0  0  0  0  0  0  0  0
  2  1  1  0
  3  2  1  0
  4  1  2  0
  5 10  1  0
  6  1  1  0
  7  3  1  0
  8  4  1  0
  9  2  2  0
 10  6  2  0
 11  7  1  0
 12 11  2  0
 13  8  2  0
 14  8  1  0
 15 12  1  0
 16 15  1  0
 17 18  2  0
 18 11  1  0
 19 17  1  0
 20 14  1  0
  3  5  2  0
 13  9  1  0
 19 15  2  0
M  END
>  <ACTIVITY>  (49) 
52.48

$$$$

     RDKit          2D

 19 21  0  0  0  0  0  0  0  0999 V2000
    2.9625   -3.3542    0.0000 C   0  0  0  0  0  0  0  0  0  0  0  0
    2.9625   -2.5292    0.0000 C   0  0  0  0  0  0  0  0  0  0  0  0
    3.6667   -2.1125    0.0000 C   0  0  0  0  0  0  0  0  0  0  0  0
    2.2417   -3.7667    0.0000 N   0  0  0  0  0  0  0  0  0  0  0  0
    4.3875   -2.5167    0.0000 N   0  0  0  0  0  0  0  0  0  0  0  0
    3.6792   -3.7667    0.0000 N   0  0  0  0  0  0  0  0  0  0  0  0
    3.6667   -1.2875    0.0000 N   0  0  0  0  0  0  0  0  0  0  0  0
    1.5292   -3.3542    0.0000 C   0  0  0  0  0  0  0  0  0  0  0  0
    2.2417   -2.1167    0.0000 C   0  0  0  0  0  0  0  0  0  0  0  0
    4.3917   -3.3500    0.0000 C   0  0  0  0  0  0  0  0  0  0  0  0
    4.3792   -0.8667    0.0000 C   0  0  0  0  0  0  0  0  0  0  0  0
    5.0917   -1.2792    0.0000 C   0  0  0  0  0  0  0  0  0  0  0  0
    1.5292   -2.5292    0.0000 C   0  0  0  0  0  0  0  0  0  0  0  0
    5.8042   -0.8667    0.0000 C   0  0  0  0  0  0  0  0  0  0  0  0
    0.8167   -3.7667    0.0000 F   0  0  0  0  0  0  0  0  0  0  0  0
    6.5167   -1.2792    0.0000 Br  0  0  0  0  0  0  0  0  0  0  0  0
    5.0792    0.3708    0.0000 C   0  0  0  0  0  0  0  0  0  0  0  0
    4.3667   -0.0542    0.0000 C   0  0  0  0  0  0  0  0  0  0  0  0
    5.8000   -0.0417    0.0000 C   0  0  0  0  0  0  0  0  0  0  0  0
  2  1  1  0
  3  2  1  0
  4  1  2  0
  5 10  1  0
  6  1  1  0
  7  3  1  0
  8  4  1  0
  9  2  2  0
 10  6  2  0
 11  7  1  0
 12 11  2  0
 13  8  2  0
 14 12  1  0
 15  8  1  0
 16 14  1  0
 17 18  2  0
 18 11  1  0
 19 17  1  0
  3  5  2  0
 13  9  1  0
 19 14  2  0
M  END
>  <ACTIVITY>  (50) 
691.83

$$$$

     RDKit          2D

 19 21  0  0  0  0  0  0  0  0999 V2000
    2.9625   -3.3542    0.0000 C   0  0  0  0  0  0  0  0  0  0  0  0
    2.9625   -2.5292    0.0000 C   0  0  0  0  0  0  0  0  0  0  0  0
    3.6667   -2.1125    0.0000 C   0  0  0  0  0  0  0  0  0  0  0  0
    2.2417   -3.7667    0.0000 N   0  0  0  0  0  0  0  0  0  0  0  0
    4.3875   -2.5167    0.0000 N   0  0  0  0  0  0  0  0  0  0  0  0
    3.6792   -3.7667    0.0000 N   0  0  0  0  0  0  0  0  0  0  0  0
    3.6667   -1.2875    0.0000 N   0  0  0  0  0  0  0  0  0  0  0  0
    1.5292   -3.3542    0.0000 C   0  0  0  0  0  0  0  0  0  0  0  0
    2.2417   -2.1167    0.0000 C   0  0  0  0  0  0  0  0  0  0  0  0
    4.3917   -3.3500    0.0000 C   0  0  0  0  0  0  0  0  0  0  0  0
    4.3792   -0.8667    0.0000 C   0  0  0  0  0  0  0  0  0  0  0  0
    5.0917   -1.2792    0.0000 C   0  0  0  0  0  0  0  0  0  0  0  0
    1.5292   -2.5292    0.0000 C   0  0  0  0  0  0  0  0  0  0  0  0
    0.8167   -3.7667    0.0000 N   0  0  0  0  0  0  0  0  0  0  0  0
    5.8042   -0.8667    0.0000 C   0  0  0  0  0  0  0  0  0  0  0  0
    6.5167   -1.2792    0.0000 Br  0  0  0  0  0  0  0  0  0  0  0  0
    5.0792    0.3708    0.0000 C   0  0  0  0  0  0  0  0  0  0  0  0
    4.3667   -0.0542    0.0000 C   0  0  0  0  0  0  0  0  0  0  0  0
    5.8000   -0.0417    0.0000 C   0  0  0  0  0  0  0  0  0  0  0  0
  2  1  1  0
  3  2  1  0
  4  1  2  0
  5 10  1  0
  6  1  1  0
  7  3  1  0
  8  4  1  0
  9  2  2  0
 10  6  2  0
 11  7  1  0
 12 11  2  0
 13  8  2  0
 14  8  1  0
 15 12  1  0
 16 15  1  0
 17 18  2  0
 18 11  1  0
 19 17  1  0
  3  5  2  0
 13  9  1  0
 19 15  2  0
M  END
>  <ACTIVITY>  (51) 
954.99

$$$$

     RDKit          2D

 18 20  0  0  0  0  0  0  0  0999 V2000
    3.6667   -2.1125    0.0000 C   0  0  0  0  0  0  0  0  0  0  0  0
    2.9625   -2.5292    0.0000 C   0  0  0  0  0  0  0  0  0  0  0  0
    4.3875   -2.5167    0.0000 N   0  0  0  0  0  0  0  0  0  0  0  0
    2.9625   -3.3542    0.0000 C   0  0  0  0  0  0  0  0  0  0  0  0
    3.6667   -1.2875    0.0000 N   0  0  0  0  0  0  0  0  0  0  0  0
    3.6792   -3.7667    0.0000 N   0  0  0  0  0  0  0  0  0  0  0  0
    4.3917   -3.3500    0.0000 C   0  0  0  0  0  0  0  0  0  0  0  0
    2.2417   -3.7667    0.0000 N   0  0  0  0  0  0  0  0  0  0  0  0
    4.3792   -0.8667    0.0000 C   0  0  0  0  0  0  0  0  0  0  0  0
    5.0917   -1.2792    0.0000 C   0  0  0  0  0  0  0  0  0  0  0  0
    5.8042   -0.8667    0.0000 C   0  0  0  0  0  0  0  0  0  0  0  0
    6.5167   -1.2792    0.0000 Br  0  0  0  0  0  0  0  0  0  0  0  0
    2.2417   -2.1167    0.0000 C   0  0  0  0  0  0  0  0  0  0  0  0
    5.0792    0.3708    0.0000 C   0  0  0  0  0  0  0  0  0  0  0  0
    1.5292   -3.3542    0.0000 C   0  0  0  0  0  0  0  0  0  0  0  0
    4.3667   -0.0542    0.0000 C   0  0  0  0  0  0  0  0  0  0  0  0
    5.8000   -0.0417    0.0000 C   0  0  0  0  0  0  0  0  0  0  0  0
    1.5292   -2.5292    0.0000 C   0  0  0  0  0  0  0  0  0  0  0  0
  2  1  1  0
  3  1  2  0
  4  2  2  0
  5  1  1  0
  6  7  2  0
  7  3  1  0
  8  4  1  0
  9  5  1  0
 10  9  2  0
 11 10  1  0
 12 11  1  0
 13  2  1  0
 14 16  2  0
 15 18  1  0
 16  9  1  0
 17 14  1  0
 18 13  2  0
  6  4  1  0
  8 15  2  0
 17 11  2  0
M  END
>  <ACTIVITY>  (52) 
691.83

$$$$

     RDKit          2D

 28 31  0  0  0  0  0  0  0  0999 V2000
    3.6667   -2.1125    0.0000 C   0  0  0  0  0  0  0  0  0  0  0  0
    2.9625   -2.5292    0.0000 C   0  0  0  0  0  0  0  0  0  0  0  0
    4.3875   -2.5167    0.0000 N   0  0  0  0  0  0  0  0  0  0  0  0
    3.6667   -1.2875    0.0000 N   0  0  0  0  0  0  0  0  0  0  0  0
    1.5292   -3.3542    0.0000 N   0  0  0  0  0  0  0  0  0  0  0  0
    1.5292   -2.5292    0.0000 C   0  0  0  0  0  0  0  0  0  0  0  0
    2.9625   -3.3542    0.0000 C   0  0  0  0  0  0  0  0  0  0  0  0
    2.2417   -2.1167    0.0000 C   0  0  0  0  0  0  0  0  0  0  0  0
    3.6792   -3.7667    0.0000 N   0  0  0  0  0  0  0  0  0  0  0  0
    4.3917   -3.3500    0.0000 C   0  0  0  0  0  0  0  0  0  0  0  0
    4.3792   -0.8667    0.0000 C   0  0  0  0  0  0  0  0  0  0  0  0
    0.8167   -2.1167    0.0000 N   0  0  0  0  0  0  0  0  0  0  0  0
    2.2417   -3.7667    0.0000 C   0  0  0  0  0  0  0  0  0  0  0  0
    5.0917   -1.2792    0.0000 C   0  0  0  0  0  0  0  0  0  0  0  0
    5.8042   -0.8667    0.0000 C   0  0  0  0  0  0  0  0  0  0  0  0
    0.1042   -2.5292    0.0000 C   0  0  0  0  0  0  0  0  0  0  0  0
   -0.6083   -2.1167    0.0000 C   0  0  0  0  0  0  0  0  0  0  0  0
   -2.0333   -1.2917    0.0000 C   0  0  0  0  0  0  0  0  0  0  0  0
    6.5167   -1.2792    0.0000 Br  0  0  0  0  0  0  0  0  0  0  0  0
   -0.6083   -1.2917    0.0000 C   0  0  0  0  0  0  0  0  0  0  0  0
   -1.3208   -2.5292    0.0000 C   0  0  0  0  0  0  0  0  0  0  0  0
   -2.0333   -2.1250    0.0000 C   0  0  0  0  0  0  0  0  0  0  0  0
   -1.3208   -0.8792    0.0000 C   0  0  0  0  0  0  0  0  0  0  0  0
   -2.7500   -0.8792    0.0000 O   0  0  0  0  0  0  0  0  0  0  0  0
    5.0792    0.3708    0.0000 C   0  0  0  0  0  0  0  0  0  0  0  0
    4.3667   -0.0542    0.0000 C   0  0  0  0  0  0  0  0  0  0  0  0
    5.8000   -0.0417    0.0000 C   0  0  0  0  0  0  0  0  0  0  0  0
   -3.4625   -1.2917    0.0000 C   0  0  0  0  0  0  0  0  0  0  0  0
  2  1  1  0
  3  1  2  0
  4  1  1  0
  5  6  1  0
  6  8  2  0
  7  2  2  0
  8  2  1  0
  9 10  2  0
 10  3  1  0
 11  4  1  0
 12  6  1  0
 13  7  1  0
 14 11  2  0
 15 14  1  0
 16 12  1  0
 17 16  1  0
 18 22  2  0
 19 15  1  0
 20 17  1  0
 21 17  2  0
 22 21  1  0
 23 20  2  0
 24 18  1  0
 25 26  2  0
 26 11  1  0
 27 25  1  0
 28 24  1  0
  9  7  1  0
  5 13  2  0
 27 15  2  0
 18 23  1  0
M  END
>  <ACTIVITY>  (53) 
2.34

$$$$

     RDKit          2D

 20 22  0  0  0  0  0  0  0  0999 V2000
    3.6667   -2.1125    0.0000 C   0  0  0  0  0  0  0  0  0  0  0  0
    2.9625   -2.5292    0.0000 C   0  0  0  0  0  0  0  0  0  0  0  0
    4.3875   -2.5167    0.0000 N   0  0  0  0  0  0  0  0  0  0  0  0
    3.6667   -1.2875    0.0000 N   0  0  0  0  0  0  0  0  0  0  0  0
    1.5292   -3.3542    0.0000 N   0  0  0  0  0  0  0  0  0  0  0  0
    2.9625   -3.3542    0.0000 C   0  0  0  0  0  0  0  0  0  0  0  0
    2.2417   -2.1167    0.0000 C   0  0  0  0  0  0  0  0  0  0  0  0
    1.5292   -2.5292    0.0000 C   0  0  0  0  0  0  0  0  0  0  0  0
    3.6792   -3.7667    0.0000 N   0  0  0  0  0  0  0  0  0  0  0  0
    4.3917   -3.3500    0.0000 C   0  0  0  0  0  0  0  0  0  0  0  0
    4.3792   -0.8667    0.0000 C   0  0  0  0  0  0  0  0  0  0  0  0
    2.2417   -3.7667    0.0000 C   0  0  0  0  0  0  0  0  0  0  0  0
    5.0917   -1.2792    0.0000 C   0  0  0  0  0  0  0  0  0  0  0  0
    5.8042   -0.8667    0.0000 C   0  0  0  0  0  0  0  0  0  0  0  0
    6.5167   -1.2792    0.0000 Br  0  0  0  0  0  0  0  0  0  0  0  0
    0.8167   -2.1167    0.0000 O   0  0  0  0  0  0  0  0  0  0  0  0
    5.0792    0.3708    0.0000 C   0  0  0  0  0  0  0  0  0  0  0  0
    4.3667   -0.0542    0.0000 C   0  0  0  0  0  0  0  0  0  0  0  0
    5.8000   -0.0417    0.0000 C   0  0  0  0  0  0  0  0  0  0  0  0
    0.1042   -2.5292    0.0000 C   0  0  0  0  0  0  0  0  0  0  0  0
  2  1  1  0
  3  1  2  0
  4  1  1  0
  5  8  1  0
  6  2  2  0
  7  2  1  0
  8  7  2  0
  9 10  2  0
 10  3  1  0
 11  4  1  0
 12  6  1  0
 13 11  2  0
 14 13  1  0
 15 14  1  0
 16  8  1  0
 17 18  2  0
 18 11  1  0
 19 17  1  0
 20 16  1  0
  9  6  1  0
 12  5  2  0
 19 14  2  0
M  END
>  <ACTIVITY>  (54) 
2.63

$$$$

     RDKit          2D

 19 21  0  0  0  0  0  0  0  0999 V2000
    3.6667   -2.1125    0.0000 C   0  0  0  0  0  0  0  0  0  0  0  0
    2.9625   -2.5292    0.0000 C   0  0  0  0  0  0  0  0  0  0  0  0
    4.3875   -2.5167    0.0000 N   0  0  0  0  0  0  0  0  0  0  0  0
    3.6667   -1.2875    0.0000 N   0  0  0  0  0  0  0  0  0  0  0  0
    1.5292   -3.3542    0.0000 N   0  0  0  0  0  0  0  0  0  0  0  0
    2.9625   -3.3542    0.0000 C   0  0  0  0  0  0  0  0  0  0  0  0
    2.2417   -2.1167    0.0000 C   0  0  0  0  0  0  0  0  0  0  0  0
    1.5292   -2.5292    0.0000 C   0  0  0  0  0  0  0  0  0  0  0  0
    3.6792   -3.7667    0.0000 N   0  0  0  0  0  0  0  0  0  0  0  0
    4.3917   -3.3500    0.0000 C   0  0  0  0  0  0  0  0  0  0  0  0
    4.3792   -0.8667    0.0000 C   0  0  0  0  0  0  0  0  0  0  0  0
    2.2417   -3.7667    0.0000 C   0  0  0  0  0  0  0  0  0  0  0  0
    5.0917   -1.2792    0.0000 C   0  0  0  0  0  0  0  0  0  0  0  0
    5.8042   -0.8667    0.0000 C   0  0  0  0  0  0  0  0  0  0  0  0
    0.8167   -2.1167    0.0000 F   0  0  0  0  0  0  0  0  0  0  0  0
    6.5167   -1.2792    0.0000 Br  0  0  0  0  0  0  0  0  0  0  0  0
    5.0792    0.3708    0.0000 C   0  0  0  0  0  0  0  0  0  0  0  0
    4.3667   -0.0542    0.0000 C   0  0  0  0  0  0  0  0  0  0  0  0
    5.8000   -0.0417    0.0000 C   0  0  0  0  0  0  0  0  0  0  0  0
  2  1  1  0
  3  1  2  0
  4  1  1  0
  5  8  1  0
  6  2  2  0
  7  2  1  0
  8  7  2  0
  9 10  2  0
 10  3  1  0
 11  4  1  0
 12  6  1  0
 13 11  2  0
 14 13  1  0
 15  8  1  0
 16 14  1  0
 17 18  2  0
 18 11  1  0
 19 17  1  0
  9  6  1  0
 12  5  2  0
 19 14  2  0
M  END
>  <ACTIVITY>  (55) 
125.89

$$$$

     RDKit          2D

 19 21  0  0  0  0  0  0  0  0999 V2000
    3.6667   -2.1125    0.0000 C   0  0  0  0  0  0  0  0  0  0  0  0
    2.9625   -2.5292    0.0000 C   0  0  0  0  0  0  0  0  0  0  0  0
    4.3875   -2.5167    0.0000 N   0  0  0  0  0  0  0  0  0  0  0  0
    3.6667   -1.2875    0.0000 N   0  0  0  0  0  0  0  0  0  0  0  0
    1.5292   -3.3542    0.0000 N   0  0  0  0  0  0  0  0  0  0  0  0
    2.9625   -3.3542    0.0000 C   0  0  0  0  0  0  0  0  0  0  0  0
    2.2417   -2.1167    0.0000 C   0  0  0  0  0  0  0  0  0  0  0  0
    1.5292   -2.5292    0.0000 C   0  0  0  0  0  0  0  0  0  0  0  0
    3.6792   -3.7667    0.0000 N   0  0  0  0  0  0  0  0  0  0  0  0
    4.3917   -3.3500    0.0000 C   0  0  0  0  0  0  0  0  0  0  0  0
    4.3792   -0.8667    0.0000 C   0  0  0  0  0  0  0  0  0  0  0  0
    2.2417   -3.7667    0.0000 C   0  0  0  0  0  0  0  0  0  0  0  0
    5.0917   -1.2792    0.0000 C   0  0  0  0  0  0  0  0  0  0  0  0
    5.8042   -0.8667    0.0000 C   0  0  0  0  0  0  0  0  0  0  0  0
    0.8167   -2.1167    0.0000 Cl  0  0  0  0  0  0  0  0  0  0  0  0
    6.5167   -1.2792    0.0000 Br  0  0  0  0  0  0  0  0  0  0  0  0
    5.0792    0.3708    0.0000 C   0  0  0  0  0  0  0  0  0  0  0  0
    4.3667   -0.0542    0.0000 C   0  0  0  0  0  0  0  0  0  0  0  0
    5.8000   -0.0417    0.0000 C   0  0  0  0  0  0  0  0  0  0  0  0
  2  1  1  0
  3  1  2  0
  4  1  1  0
  5  8  1  0
  6  2  2  0
  7  2  1  0
  8  7  2  0
  9 10  2  0
 10  3  1  0
 11  4  1  0
 12  6  1  0
 13 11  2  0
 14 13  1  0
 15  8  1  0
 16 14  1  0
 17 18  2  0
 18 11  1  0
 19 17  1  0
  9  6  1  0
 12  5  2  0
 19 14  2  0
M  END
>  <ACTIVITY>  (56) 
40.74

$$$$

     RDKit          2D

 18 20  0  0  0  0  0  0  0  0999 V2000
    3.6667   -2.1125    0.0000 C   0  0  0  0  0  0  0  0  0  0  0  0
    2.9625   -2.5292    0.0000 C   0  0  0  0  0  0  0  0  0  0  0  0
    4.3875   -2.5167    0.0000 N   0  0  0  0  0  0  0  0  0  0  0  0
    3.6667   -1.2875    0.0000 N   0  0  0  0  0  0  0  0  0  0  0  0
    3.6792   -3.7667    0.0000 N   0  0  0  0  0  0  0  0  0  0  0  0
    4.3917   -3.3500    0.0000 C   0  0  0  0  0  0  0  0  0  0  0  0
    2.9625   -3.3542    0.0000 C   0  0  0  0  0  0  0  0  0  0  0  0
    4.3792   -0.8667    0.0000 C   0  0  0  0  0  0  0  0  0  0  0  0
    5.0917   -1.2792    0.0000 C   0  0  0  0  0  0  0  0  0  0  0  0
    1.5292   -3.3542    0.0000 N   0  0  0  0  0  0  0  0  0  0  0  0
    5.8042   -0.8667    0.0000 C   0  0  0  0  0  0  0  0  0  0  0  0
    6.5167   -1.2792    0.0000 Br  0  0  0  0  0  0  0  0  0  0  0  0
    2.2417   -2.1167    0.0000 C   0  0  0  0  0  0  0  0  0  0  0  0
    2.2417   -3.7667    0.0000 C   0  0  0  0  0  0  0  0  0  0  0  0
    5.0792    0.3708    0.0000 C   0  0  0  0  0  0  0  0  0  0  0  0
    1.5292   -2.5292    0.0000 C   0  0  0  0  0  0  0  0  0  0  0  0
    4.3667   -0.0542    0.0000 C   0  0  0  0  0  0  0  0  0  0  0  0
    5.8000   -0.0417    0.0000 C   0  0  0  0  0  0  0  0  0  0  0  0
  2  1  1  0
  3  1  2  0
  4  1  1  0
  5  6  2  0
  6  3  1  0
  7  2  2  0
  8  4  1  0
  9  8  2  0
 10 16  1  0
 11  9  1  0
 12 11  1  0
 13  2  1  0
 14  7  1  0
 15 17  2  0
 16 13  2  0
 17  8  1  0
 18 15  1  0
  5  7  1  0
 14 10  2  0
 18 11  2  0
M  END
>  <ACTIVITY>  (57) 
51.29

$$$$

     RDKit          2D

 19 21  0  0  0  0  0  0  0  0999 V2000
    2.7027    0.8000    0.0000 N   0  0  0  0  0  0  0  0  0  0  0  0
    2.7016   -0.0273    0.0000 C   0  0  0  0  0  0  0  0  0  0  0  0
    3.4164   -0.4402    0.0000 C   0  0  0  0  0  0  0  0  0  0  0  0
    3.4146    1.2128    0.0000 C   0  0  0  0  0  0  0  0  0  0  0  0
    4.1300    0.8037    0.0000 C   0  0  0  0  0  0  0  0  0  0  0  0
    4.1307   -0.0232    0.0000 C   0  0  0  0  0  0  0  0  0  0  0  0
    4.8460   -0.4341    0.0000 N   0  0  0  0  0  0  0  0  0  0  0  0
    5.5611   -0.0194    0.0000 C   0  0  0  0  0  0  0  0  0  0  0  0
    4.8404    1.2178    0.0000 C   0  0  0  0  0  0  0  0  0  0  0  0
    4.8360    2.0428    0.0000 N   0  0  0  0  0  0  0  0  0  0  0  0
    5.5483    2.4591    0.0000 C   0  0  0  0  0  0  0  0  0  0  0  0
    6.2603    2.0470    0.0000 C   0  0  0  0  0  0  0  0  0  0  0  0
    6.9721    2.4626    0.0000 C   0  0  0  0  0  0  0  0  0  0  0  0
    6.9682    3.2884    0.0000 C   0  0  0  0  0  0  0  0  0  0  0  0
    6.2465    3.6970    0.0000 C   0  0  0  0  0  0  0  0  0  0  0  0
    5.5377    3.2790    0.0000 C   0  0  0  0  0  0  0  0  0  0  0  0
    6.2619    1.2220    0.0000 N   0  0  0  0  0  0  0  0  0  0  0  0
    5.5482    0.8081    0.0000 N   0  0  0  0  0  0  0  0  0  0  0  0
    7.6886    2.0535    0.0000 C   0  0  0  0  0  0  0  0  0  0  0  0
 18  9  1  0
  9  5  2  0
  4  1  2  0
  9 10  1  0
 10 11  1  0
  2  3  2  0
 11 12  2  0
  5  6  1  0
 12 13  1  0
  3  6  1  0
 13 14  2  0
  6  7  2  0
 14 15  1  0
  1  2  1  0
 15 16  2  0
 16 11  1  0
  7  8  1  0
 12 17  1  0
  8 18  2  0
  5  4  1  0
 13 19  1  0
M  END
>  <ACTIVITY>  (58) 
40.74

$$$$

     RDKit          2D

 19 21  0  0  0  0  0  0  0  0999 V2000
   -4.8269    0.6460    0.0000 N   0  0  0  0  0  0  0  0  0  0  0  0
   -4.8281   -0.1815    0.0000 C   0  0  0  0  0  0  0  0  0  0  0  0
   -4.1132   -0.5945    0.0000 C   0  0  0  0  0  0  0  0  0  0  0  0
   -4.1150    1.0587    0.0000 C   0  0  0  0  0  0  0  0  0  0  0  0
   -3.3995    0.6496    0.0000 C   0  0  0  0  0  0  0  0  0  0  0  0
   -3.3987   -0.1773    0.0000 C   0  0  0  0  0  0  0  0  0  0  0  0
   -2.6834   -0.5884    0.0000 N   0  0  0  0  0  0  0  0  0  0  0  0
   -1.9683   -0.1735    0.0000 C   0  0  0  0  0  0  0  0  0  0  0  0
   -2.6891    1.0638    0.0000 C   0  0  0  0  0  0  0  0  0  0  0  0
   -2.6934    1.8888    0.0000 N   0  0  0  0  0  0  0  0  0  0  0  0
   -1.9811    2.3051    0.0000 C   0  0  0  0  0  0  0  0  0  0  0  0
   -1.2689    1.8930    0.0000 C   0  0  0  0  0  0  0  0  0  0  0  0
   -0.5571    2.3086    0.0000 C   0  0  0  0  0  0  0  0  0  0  0  0
   -0.5611    3.1346    0.0000 C   0  0  0  0  0  0  0  0  0  0  0  0
   -1.2827    3.5431    0.0000 C   0  0  0  0  0  0  0  0  0  0  0  0
   -1.9917    3.1251    0.0000 C   0  0  0  0  0  0  0  0  0  0  0  0
   -1.2674    1.0679    0.0000 N   0  0  0  0  0  0  0  0  0  0  0  0
   -1.9811    0.6541    0.0000 N   0  0  0  0  0  0  0  0  0  0  0  0
    0.1594    1.8996    0.0000 O   0  0  0  0  0  0  0  0  0  0  0  0
 18  9  1  0
  9  5  2  0
  4  1  2  0
  9 10  1  0
 10 11  1  0
  2  3  2  0
 11 12  2  0
  5  6  1  0
 12 13  1  0
  3  6  1  0
 13 14  2  0
  6  7  2  0
 14 15  1  0
  1  2  1  0
 15 16  2  0
 16 11  1  0
  7  8  1  0
 12 17  1  0
  8 18  2  0
  5  4  1  0
 13 19  1  0
M  END
>  <ACTIVITY>  (59) 
70.79

$$$$

     RDKit          2D

 19 21  0  0  0  0  0  0  0  0999 V2000
    9.0194  -24.8208    0.0000 N   0  0  0  0  0  0  0  0  0  0  0  0
    9.0182  -25.6482    0.0000 C   0  0  0  0  0  0  0  0  0  0  0  0
    9.7331  -26.0610    0.0000 C   0  0  0  0  0  0  0  0  0  0  0  0
    9.7313  -24.4080    0.0000 C   0  0  0  0  0  0  0  0  0  0  0  0
   10.4466  -24.8172    0.0000 C   0  0  0  0  0  0  0  0  0  0  0  0
   10.4474  -25.6440    0.0000 C   0  0  0  0  0  0  0  0  0  0  0  0
   11.1627  -26.0550    0.0000 N   0  0  0  0  0  0  0  0  0  0  0  0
   11.8777  -25.6402    0.0000 C   0  0  0  0  0  0  0  0  0  0  0  0
   11.1571  -24.4030    0.0000 C   0  0  0  0  0  0  0  0  0  0  0  0
   11.1527  -23.5780    0.0000 N   0  0  0  0  0  0  0  0  0  0  0  0
   11.8650  -23.1617    0.0000 C   0  0  0  0  0  0  0  0  0  0  0  0
   12.5770  -23.5739    0.0000 C   0  0  0  0  0  0  0  0  0  0  0  0
   13.2888  -23.1583    0.0000 C   0  0  0  0  0  0  0  0  0  0  0  0
   13.2849  -22.3324    0.0000 C   0  0  0  0  0  0  0  0  0  0  0  0
   12.5632  -21.9239    0.0000 C   0  0  0  0  0  0  0  0  0  0  0  0
   11.8544  -22.3418    0.0000 C   0  0  0  0  0  0  0  0  0  0  0  0
   12.5786  -24.3989    0.0000 N   0  0  0  0  0  0  0  0  0  0  0  0
   11.8649  -24.8127    0.0000 N   0  0  0  0  0  0  0  0  0  0  0  0
   14.0052  -23.5673    0.0000 Cl  0  0  0  0  0  0  0  0  0  0  0  0
 18  9  1  0
  9  5  2  0
  4  1  2  0
  9 10  1  0
 10 11  1  0
  2  3  2  0
 11 12  2  0
  5  6  1  0
 12 13  1  0
  3  6  1  0
 13 14  2  0
  6  7  2  0
 14 15  1  0
  1  2  1  0
 15 16  2  0
 16 11  1  0
  7  8  1  0
 12 17  1  0
  8 18  2  0
  5  4  1  0
 13 19  1  0
M  END
>  <ACTIVITY>  (60) 
120.23

$$$$

     RDKit          2D

 19 21  0  0  0  0  0  0  0  0999 V2000
    1.8946  -24.9440    0.0000 N   0  0  0  0  0  0  0  0  0  0  0  0
    1.8934  -25.7715    0.0000 C   0  0  0  0  0  0  0  0  0  0  0  0
    2.6083  -26.1844    0.0000 C   0  0  0  0  0  0  0  0  0  0  0  0
    2.6065  -24.5312    0.0000 C   0  0  0  0  0  0  0  0  0  0  0  0
    3.3219  -24.9404    0.0000 C   0  0  0  0  0  0  0  0  0  0  0  0
    3.3227  -25.7673    0.0000 C   0  0  0  0  0  0  0  0  0  0  0  0
    4.0381  -26.1783    0.0000 N   0  0  0  0  0  0  0  0  0  0  0  0
    4.7532  -25.7635    0.0000 C   0  0  0  0  0  0  0  0  0  0  0  0
    4.0325  -24.5261    0.0000 C   0  0  0  0  0  0  0  0  0  0  0  0
    4.0281  -23.7012    0.0000 N   0  0  0  0  0  0  0  0  0  0  0  0
    4.7405  -23.2848    0.0000 C   0  0  0  0  0  0  0  0  0  0  0  0
    5.4525  -23.6970    0.0000 C   0  0  0  0  0  0  0  0  0  0  0  0
    6.1644  -23.2813    0.0000 C   0  0  0  0  0  0  0  0  0  0  0  0
    6.1605  -22.4554    0.0000 C   0  0  0  0  0  0  0  0  0  0  0  0
    5.4387  -22.0468    0.0000 C   0  0  0  0  0  0  0  0  0  0  0  0
    4.7299  -22.4649    0.0000 C   0  0  0  0  0  0  0  0  0  0  0  0
    5.4541  -24.5220    0.0000 N   0  0  0  0  0  0  0  0  0  0  0  0
    4.7404  -24.9359    0.0000 N   0  0  0  0  0  0  0  0  0  0  0  0
    6.8809  -23.6904    0.0000 F   0  0  0  0  0  0  0  0  0  0  0  0
 18  9  1  0
  9  5  2  0
  4  1  2  0
  9 10  1  0
 10 11  1  0
  2  3  2  0
 11 12  2  0
  5  6  1  0
 12 13  1  0
  3  6  1  0
 13 14  2  0
  6  7  2  0
 14 15  1  0
  1  2  1  0
 15 16  2  0
 16 11  1  0
  7  8  1  0
 12 17  1  0
  8 18  2  0
  5  4  1  0
 13 19  1  0
M  END
>  <ACTIVITY>  (61) 
851.14

$$$$

     RDKit          2D

 21 23  0  0  0  0  0  0  0  0999 V2000
   -5.4556  -25.2083    0.0000 N   0  0  0  0  0  0  0  0  0  0  0  0
   -5.4568  -26.0357    0.0000 C   0  0  0  0  0  0  0  0  0  0  0  0
   -4.7419  -26.4485    0.0000 C   0  0  0  0  0  0  0  0  0  0  0  0
   -4.7437  -24.7955    0.0000 C   0  0  0  0  0  0  0  0  0  0  0  0
   -4.0284  -25.2047    0.0000 C   0  0  0  0  0  0  0  0  0  0  0  0
   -4.0276  -26.0315    0.0000 C   0  0  0  0  0  0  0  0  0  0  0  0
   -3.3123  -26.4425    0.0000 N   0  0  0  0  0  0  0  0  0  0  0  0
   -2.5973  -26.0277    0.0000 C   0  0  0  0  0  0  0  0  0  0  0  0
   -3.3179  -24.7905    0.0000 C   0  0  0  0  0  0  0  0  0  0  0  0
   -3.3223  -23.9655    0.0000 N   0  0  0  0  0  0  0  0  0  0  0  0
   -2.6100  -23.5492    0.0000 C   0  0  0  0  0  0  0  0  0  0  0  0
   -1.8980  -23.9614    0.0000 C   0  0  0  0  0  0  0  0  0  0  0  0
   -1.1862  -23.5458    0.0000 C   0  0  0  0  0  0  0  0  0  0  0  0
   -1.1901  -22.7199    0.0000 C   0  0  0  0  0  0  0  0  0  0  0  0
   -1.9118  -22.3114    0.0000 C   0  0  0  0  0  0  0  0  0  0  0  0
   -2.6206  -22.7293    0.0000 C   0  0  0  0  0  0  0  0  0  0  0  0
   -1.8964  -24.7864    0.0000 N   0  0  0  0  0  0  0  0  0  0  0  0
   -2.6101  -25.2002    0.0000 N   0  0  0  0  0  0  0  0  0  0  0  0
   -0.4784  -22.3027    0.0000 N   0  0  0  0  0  0  0  0  0  0  0  0
    0.2388  -22.7104    0.0000 C   0  0  0  0  0  0  0  0  0  0  0  0
   -0.4839  -21.4777    0.0000 C   0  0  0  0  0  0  0  0  0  0  0  0
  4  1  2  0
  9 10  1  0
 10 11  1  0
  2  3  2  0
 11 12  2  0
  5  6  2  0
 12 13  1  0
  3  6  1  0
 13 14  2  0
  6  7  1  0
 14 15  1  0
  1  2  1  0
 15 16  2  0
 16 11  1  0
  7  8  2  0
 12 17  1  0
  8 18  1  0
  5  4  1  0
 14 19  1  0
 18  9  2  0
 19 20  1  0
  9  5  1  0
 19 21  1  0
M  END
>  <ACTIVITY>  (62) 
4897.79

$$$$

     RDKit          2D

 21 23  0  0  0  0  0  0  0  0999 V2000
    9.0527  -19.1833    0.0000 N   0  0  0  0  0  0  0  0  0  0  0  0
    9.0516  -20.0107    0.0000 C   0  0  0  0  0  0  0  0  0  0  0  0
    9.7664  -20.4235    0.0000 C   0  0  0  0  0  0  0  0  0  0  0  0
    9.7646  -18.7705    0.0000 C   0  0  0  0  0  0  0  0  0  0  0  0
   10.4800  -19.1797    0.0000 C   0  0  0  0  0  0  0  0  0  0  0  0
   10.4807  -20.0065    0.0000 C   0  0  0  0  0  0  0  0  0  0  0  0
   11.1960  -20.4175    0.0000 N   0  0  0  0  0  0  0  0  0  0  0  0
   11.9111  -20.0027    0.0000 C   0  0  0  0  0  0  0  0  0  0  0  0
   11.1904  -18.7655    0.0000 C   0  0  0  0  0  0  0  0  0  0  0  0
   11.1860  -17.9405    0.0000 N   0  0  0  0  0  0  0  0  0  0  0  0
   11.8983  -17.5242    0.0000 C   0  0  0  0  0  0  0  0  0  0  0  0
   12.6103  -17.9364    0.0000 C   0  0  0  0  0  0  0  0  0  0  0  0
   13.3221  -17.5208    0.0000 C   0  0  0  0  0  0  0  0  0  0  0  0
   13.3182  -16.6949    0.0000 C   0  0  0  0  0  0  0  0  0  0  0  0
   12.5965  -16.2864    0.0000 C   0  0  0  0  0  0  0  0  0  0  0  0
   11.8877  -16.7043    0.0000 C   0  0  0  0  0  0  0  0  0  0  0  0
   12.6119  -18.7614    0.0000 N   0  0  0  0  0  0  0  0  0  0  0  0
   11.8982  -19.1752    0.0000 N   0  0  0  0  0  0  0  0  0  0  0  0
   14.0386  -17.9298    0.0000 N   0  0  0  0  0  0  0  0  0  0  0  0
   14.0426  -18.7548    0.0000 C   0  0  0  0  0  0  0  0  0  0  0  0
   14.7511  -17.5139    0.0000 C   0  0  0  0  0  0  0  0  0  0  0  0
  4  1  2  0
  9 10  1  0
 10 11  1  0
  2  3  2  0
 11 12  2  0
  5  6  2  0
 12 13  1  0
  3  6  1  0
 13 14  2  0
  6  7  1  0
 14 15  1  0
  1  2  1  0
 15 16  2  0
 16 11  1  0
  7  8  2  0
 12 17  1  0
  8 18  1  0
  5  4  1  0
 13 19  1  0
 18  9  2  0
 19 20  1  0
  9  5  1  0
 19 21  1  0
M  END
>  <ACTIVITY>  (63) 
1819.7

$$$$

     RDKit          2D

 19 21  0  0  0  0  0  0  0  0999 V2000
    1.3167   -3.9042    0.0000 C   0  0  0  0  0  0  0  0  0  0  0  0
    0.6042   -4.3167    0.0000 C   0  0  0  0  0  0  0  0  0  0  0  0
    1.3125   -3.0792    0.0000 N   0  0  0  0  0  0  0  0  0  0  0  0
    0.6042   -5.1375    0.0000 C   0  0  0  0  0  0  0  0  0  0  0  0
    2.0250   -4.3125    0.0000 N   0  0  0  0  0  0  0  0  0  0  0  0
   -0.0958   -5.5542    0.0000 C   0  0  0  0  0  0  0  0  0  0  0  0
   -0.8208   -4.3167    0.0000 N   0  0  0  0  0  0  0  0  0  0  0  0
   -0.1083   -3.9042    0.0000 C   0  0  0  0  0  0  0  0  0  0  0  0
   -0.8083   -5.1500    0.0000 C   0  0  0  0  0  0  0  0  0  0  0  0
    2.0250   -2.6667    0.0000 C   0  0  0  0  0  0  0  0  0  0  0  0
    1.3167   -5.5417    0.0000 N   0  0  0  0  0  0  0  0  0  0  0  0
    2.0292   -5.1375    0.0000 C   0  0  0  0  0  0  0  0  0  0  0  0
    2.0167   -1.8417    0.0000 C   0  0  0  0  0  0  0  0  0  0  0  0
   -1.5208   -5.5667    0.0000 N   0  0  0  0  0  0  0  0  0  0  0  0
    1.3042   -1.4375    0.0000 N   0  0  0  0  0  0  0  0  0  0  0  0
    2.7417   -3.0792    0.0000 C   0  0  0  0  0  0  0  0  0  0  0  0
    2.7292   -1.4292    0.0000 C   0  0  0  0  0  0  0  0  0  0  0  0
    3.4542   -2.6625    0.0000 C   0  0  0  0  0  0  0  0  0  0  0  0
    3.4500   -1.8375    0.0000 C   0  0  0  0  0  0  0  0  0  0  0  0
  2  1  1  0
  3  1  1  0
  4  2  2  0
  5  1  2  0
  6  4  1  0
  7  8  2  0
  8  2  1  0
  9  7  1  0
 10  3  1  0
 11 12  2  0
 12  5  1  0
 13 10  2  0
 14  9  1  0
 15 13  1  0
 16 10  1  0
 17 13  1  0
 18 16  2  0
 19 18  1  0
  4 11  1  0
  6  9  2  0
 17 19  2  0
M  END
>  <ACTIVITY>  (64) 
5370.32

$$$$

     RDKit          2D

 20 22  0  0  0  0  0  0  0  0999 V2000
   -5.4056  -19.6625    0.0000 N   0  0  0  0  0  0  0  0  0  0  0  0
   -5.4068  -20.4898    0.0000 C   0  0  0  0  0  0  0  0  0  0  0  0
   -4.6919  -20.9027    0.0000 C   0  0  0  0  0  0  0  0  0  0  0  0
   -4.6937  -19.2497    0.0000 C   0  0  0  0  0  0  0  0  0  0  0  0
   -3.9784  -19.6588    0.0000 C   0  0  0  0  0  0  0  0  0  0  0  0
   -3.9776  -20.4857    0.0000 C   0  0  0  0  0  0  0  0  0  0  0  0
   -3.2623  -20.8966    0.0000 N   0  0  0  0  0  0  0  0  0  0  0  0
   -2.5473  -20.4819    0.0000 C   0  0  0  0  0  0  0  0  0  0  0  0
   -3.2679  -19.2447    0.0000 C   0  0  0  0  0  0  0  0  0  0  0  0
   -3.2723  -18.4197    0.0000 N   0  0  0  0  0  0  0  0  0  0  0  0
   -2.5600  -18.0034    0.0000 C   0  0  0  0  0  0  0  0  0  0  0  0
   -1.8480  -18.4155    0.0000 C   0  0  0  0  0  0  0  0  0  0  0  0
   -1.1362  -17.9999    0.0000 C   0  0  0  0  0  0  0  0  0  0  0  0
   -1.1401  -17.1741    0.0000 C   0  0  0  0  0  0  0  0  0  0  0  0
   -1.8618  -16.7655    0.0000 C   0  0  0  0  0  0  0  0  0  0  0  0
   -2.5706  -17.1835    0.0000 C   0  0  0  0  0  0  0  0  0  0  0  0
   -1.8464  -19.2405    0.0000 N   0  0  0  0  0  0  0  0  0  0  0  0
   -2.5601  -19.6544    0.0000 N   0  0  0  0  0  0  0  0  0  0  0  0
   -0.4284  -16.7568    0.0000 O   0  0  0  0  0  0  0  0  0  0  0  0
    0.2888  -17.1646    0.0000 C   0  0  0  0  0  0  0  0  0  0  0  0
  9  5  2  0
  4  1  2  0
  9 10  1  0
 10 11  1  0
  2  3  2  0
 11 12  2  0
  5  6  1  0
 12 13  1  0
  3  6  1  0
 13 14  2  0
  6  7  2  0
 14 15  1  0
  1  2  1  0
 15 16  2  0
 16 11  1  0
  7  8  1  0
 12 17  1  0
  8 18  2  0
  5  4  1  0
 14 19  1  0
 18  9  1  0
 19 20  1  0
M  END
>  <ACTIVITY>  (65) 
676.08

$$$$

     RDKit          2D

 20 22  0  0  0  0  0  0  0  0999 V2000
    8.7995  -14.3931    0.0000 N   0  0  0  0  0  0  0  0  0  0  0  0
    8.7983  -15.2206    0.0000 C   0  0  0  0  0  0  0  0  0  0  0  0
    9.5132  -15.6336    0.0000 C   0  0  0  0  0  0  0  0  0  0  0  0
    9.5114  -13.9804    0.0000 C   0  0  0  0  0  0  0  0  0  0  0  0
   10.2269  -14.3895    0.0000 C   0  0  0  0  0  0  0  0  0  0  0  0
   10.2277  -15.2164    0.0000 C   0  0  0  0  0  0  0  0  0  0  0  0
   10.9431  -15.6275    0.0000 N   0  0  0  0  0  0  0  0  0  0  0  0
   11.6582  -15.2126    0.0000 C   0  0  0  0  0  0  0  0  0  0  0  0
   10.9374  -13.9753    0.0000 C   0  0  0  0  0  0  0  0  0  0  0  0
   10.9331  -13.1503    0.0000 N   0  0  0  0  0  0  0  0  0  0  0  0
   11.6454  -12.7340    0.0000 C   0  0  0  0  0  0  0  0  0  0  0  0
   12.3575  -13.1461    0.0000 C   0  0  0  0  0  0  0  0  0  0  0  0
   13.0694  -12.7305    0.0000 C   0  0  0  0  0  0  0  0  0  0  0  0
   13.0654  -11.9045    0.0000 C   0  0  0  0  0  0  0  0  0  0  0  0
   12.3437  -11.4959    0.0000 C   0  0  0  0  0  0  0  0  0  0  0  0
   11.6348  -11.9140    0.0000 C   0  0  0  0  0  0  0  0  0  0  0  0
   12.3590  -13.9712    0.0000 N   0  0  0  0  0  0  0  0  0  0  0  0
   11.6454  -14.3850    0.0000 N   0  0  0  0  0  0  0  0  0  0  0  0
   13.7807  -13.1389    0.0000 O   0  0  0  0  0  0  0  0  0  0  0  0
   14.4943  -12.7247    0.0000 C   0  0  0  0  0  0  0  0  0  0  0  0
  9  5  2  0
  4  1  2  0
  9 10  1  0
 10 11  1  0
  2  3  2  0
 11 12  2  0
  5  6  1  0
 12 13  1  0
  3  6  1  0
 13 14  2  0
  6  7  2  0
 14 15  1  0
  1  2  1  0
 15 16  2  0
 16 11  1  0
  7  8  1  0
 12 17  1  0
  8 18  2  0
  5  4  1  0
 13 19  1  0
 18  9  1  0
 19 20  1  0
M  END
>  <ACTIVITY>  (66) 
131.83

$$$$

     RDKit          2D

 20 22  0  0  0  0  0  0  0  0999 V2000
    1.8152  -14.4666    0.0000 N   0  0  0  0  0  0  0  0  0  0  0  0
    1.8141  -15.2940    0.0000 C   0  0  0  0  0  0  0  0  0  0  0  0
    2.5289  -15.7069    0.0000 C   0  0  0  0  0  0  0  0  0  0  0  0
    2.5271  -14.0539    0.0000 C   0  0  0  0  0  0  0  0  0  0  0  0
    3.2425  -14.4630    0.0000 C   0  0  0  0  0  0  0  0  0  0  0  0
    3.2432  -15.2898    0.0000 C   0  0  0  0  0  0  0  0  0  0  0  0
    3.9585  -15.7008    0.0000 N   0  0  0  0  0  0  0  0  0  0  0  0
    4.6736  -15.2860    0.0000 C   0  0  0  0  0  0  0  0  0  0  0  0
    3.9529  -14.0488    0.0000 C   0  0  0  0  0  0  0  0  0  0  0  0
    3.9485  -13.2239    0.0000 N   0  0  0  0  0  0  0  0  0  0  0  0
    4.6608  -12.8076    0.0000 C   0  0  0  0  0  0  0  0  0  0  0  0
    5.3728  -13.2197    0.0000 C   0  0  0  0  0  0  0  0  0  0  0  0
    6.0846  -12.8041    0.0000 C   0  0  0  0  0  0  0  0  0  0  0  0
    6.0807  -11.9782    0.0000 C   0  0  0  0  0  0  0  0  0  0  0  0
    5.3590  -11.5697    0.0000 C   0  0  0  0  0  0  0  0  0  0  0  0
    4.6502  -11.9877    0.0000 C   0  0  0  0  0  0  0  0  0  0  0  0
    5.3744  -14.0447    0.0000 N   0  0  0  0  0  0  0  0  0  0  0  0
    4.6607  -14.4585    0.0000 N   0  0  0  0  0  0  0  0  0  0  0  0
    1.0993  -15.7059    0.0000 O   0  0  0  0  0  0  0  0  0  0  0  0
    0.3851  -15.2929    0.0000 C   0  0  0  0  0  0  0  0  0  0  0  0
  9  5  2  0
  4  1  2  0
  9 10  1  0
 10 11  1  0
  2  3  2  0
 11 12  2  0
  5  6  1  0
 12 13  1  0
  3  6  1  0
 13 14  2  0
  6  7  2  0
 14 15  1  0
  1  2  1  0
 15 16  2  0
 16 11  1  0
  7  8  1  0
 12 17  1  0
  8 18  2  0
  5  4  1  0
  2 19  1  0
 18  9  1  0
 19 20  1  0
M  END
>  <ACTIVITY>  (67) 
3715.35

$$$$

     RDKit          2D

 22 24  0  0  0  0  0  0  0  0999 V2000
   -5.4264  -14.6541    0.0000 N   0  0  0  0  0  0  0  0  0  0  0  0
   -5.4276  -15.4815    0.0000 C   0  0  0  0  0  0  0  0  0  0  0  0
   -4.7128  -15.8944    0.0000 C   0  0  0  0  0  0  0  0  0  0  0  0
   -4.7146  -14.2414    0.0000 C   0  0  0  0  0  0  0  0  0  0  0  0
   -3.9992  -14.6505    0.0000 C   0  0  0  0  0  0  0  0  0  0  0  0
   -3.9984  -15.4773    0.0000 C   0  0  0  0  0  0  0  0  0  0  0  0
   -3.2831  -15.8883    0.0000 N   0  0  0  0  0  0  0  0  0  0  0  0
   -2.5681  -15.4735    0.0000 C   0  0  0  0  0  0  0  0  0  0  0  0
   -3.2888  -14.2363    0.0000 C   0  0  0  0  0  0  0  0  0  0  0  0
   -3.2931  -13.4114    0.0000 N   0  0  0  0  0  0  0  0  0  0  0  0
   -2.5809  -12.9951    0.0000 C   0  0  0  0  0  0  0  0  0  0  0  0
   -1.8688  -13.4072    0.0000 C   0  0  0  0  0  0  0  0  0  0  0  0
   -1.1570  -12.9916    0.0000 C   0  0  0  0  0  0  0  0  0  0  0  0
   -1.1610  -12.1657    0.0000 C   0  0  0  0  0  0  0  0  0  0  0  0
   -1.8826  -11.7572    0.0000 C   0  0  0  0  0  0  0  0  0  0  0  0
   -2.5915  -12.1752    0.0000 C   0  0  0  0  0  0  0  0  0  0  0  0
   -1.8673  -14.2322    0.0000 N   0  0  0  0  0  0  0  0  0  0  0  0
   -2.5809  -14.6460    0.0000 N   0  0  0  0  0  0  0  0  0  0  0  0
   -0.4493  -11.7485    0.0000 C   0  0  0  0  0  0  0  0  0  0  0  0
    0.2625  -11.3292    0.0000 F   0  0  0  0  0  0  0  0  0  0  0  0
   -0.0312  -12.4598    0.0000 F   0  0  0  0  0  0  0  0  0  0  0  0
   -0.8682  -11.0378    0.0000 F   0  0  0  0  0  0  0  0  0  0  0  0
  9 10  1  0
 10 11  1  0
  2  3  1  0
 11 12  2  0
  5  6  1  0
 12 13  1  0
  3  6  2  0
 13 14  2  0
  6  7  1  0
 14 15  1  0
  1  2  2  0
 15 16  2  0
 16 11  1  0
  7  8  2  0
 12 17  1  0
  8 18  1  0
  5  4  2  0
 14 19  1  0
 18  9  2  0
 19 20  1  0
  9  5  1  0
 19 21  1  0
  4  1  1  0
 19 22  1  0
M  END
>  <ACTIVITY>  (68) 
4786.3

$$$$

     RDKit          2D

 19 21  0  0  0  0  0  0  0  0999 V2000
   10.0620   -8.9174    0.0000 N   0  0  0  0  0  0  0  0  0  0  0  0
   10.0608   -9.7448    0.0000 C   0  0  0  0  0  0  0  0  0  0  0  0
   10.7756  -10.1578    0.0000 C   0  0  0  0  0  0  0  0  0  0  0  0
   10.7738   -8.5046    0.0000 C   0  0  0  0  0  0  0  0  0  0  0  0
   11.4893   -8.9138    0.0000 C   0  0  0  0  0  0  0  0  0  0  0  0
   11.4901   -9.7406    0.0000 C   0  0  0  0  0  0  0  0  0  0  0  0
   12.2055  -10.1517    0.0000 N   0  0  0  0  0  0  0  0  0  0  0  0
   12.9205   -9.7368    0.0000 C   0  0  0  0  0  0  0  0  0  0  0  0
   12.1998   -8.4995    0.0000 C   0  0  0  0  0  0  0  0  0  0  0  0
   12.1955   -7.6746    0.0000 N   0  0  0  0  0  0  0  0  0  0  0  0
   12.9077   -7.2582    0.0000 C   0  0  0  0  0  0  0  0  0  0  0  0
   13.6199   -7.6704    0.0000 C   0  0  0  0  0  0  0  0  0  0  0  0
   14.3317   -7.2547    0.0000 C   0  0  0  0  0  0  0  0  0  0  0  0
   14.3277   -6.4288    0.0000 C   0  0  0  0  0  0  0  0  0  0  0  0
   13.6061   -6.0202    0.0000 C   0  0  0  0  0  0  0  0  0  0  0  0
   12.8971   -6.4383    0.0000 C   0  0  0  0  0  0  0  0  0  0  0  0
   13.6214   -8.4954    0.0000 N   0  0  0  0  0  0  0  0  0  0  0  0
   12.9077   -8.9093    0.0000 N   0  0  0  0  0  0  0  0  0  0  0  0
   15.0395   -6.0115    0.0000 Br  0  0  0  0  0  0  0  0  0  0  0  0
 18  9  1  0
  9  5  2  0
  4  1  2  0
  9 10  1  0
 10 11  1  0
  2  3  2  0
 11 12  2  0
  5  6  1  0
 12 13  1  0
  3  6  1  0
 13 14  2  0
  6  7  2  0
 14 15  1  0
  1  2  1  0
 15 16  2  0
 16 11  1  0
  7  8  1  0
 12 17  1  0
  8 18  2  0
  5  4  1  0
 14 19  1  0
M  END
>  <ACTIVITY>  (69) 
25.7

$$$$

     RDKit          2D

 19 21  0  0  0  0  0  0  0  0999 V2000
    2.1029   -9.1423    0.0000 N   0  0  0  0  0  0  0  0  0  0  0  0
    2.1018   -9.9697    0.0000 C   0  0  0  0  0  0  0  0  0  0  0  0
    2.8166  -10.3826    0.0000 C   0  0  0  0  0  0  0  0  0  0  0  0
    2.8148   -8.7295    0.0000 C   0  0  0  0  0  0  0  0  0  0  0  0
    3.5303   -9.1387    0.0000 C   0  0  0  0  0  0  0  0  0  0  0  0
    3.5310   -9.9655    0.0000 C   0  0  0  0  0  0  0  0  0  0  0  0
    4.2463  -10.3765    0.0000 N   0  0  0  0  0  0  0  0  0  0  0  0
    4.9615   -9.9617    0.0000 C   0  0  0  0  0  0  0  0  0  0  0  0
    4.2407   -8.7244    0.0000 C   0  0  0  0  0  0  0  0  0  0  0  0
    4.2363   -7.8995    0.0000 N   0  0  0  0  0  0  0  0  0  0  0  0
    4.9487   -7.4831    0.0000 C   0  0  0  0  0  0  0  0  0  0  0  0
    5.6607   -7.8953    0.0000 C   0  0  0  0  0  0  0  0  0  0  0  0
    6.3726   -7.4796    0.0000 C   0  0  0  0  0  0  0  0  0  0  0  0
    6.3687   -6.6537    0.0000 C   0  0  0  0  0  0  0  0  0  0  0  0
    5.6469   -6.2451    0.0000 C   0  0  0  0  0  0  0  0  0  0  0  0
    4.9381   -6.6632    0.0000 C   0  0  0  0  0  0  0  0  0  0  0  0
    5.6623   -8.7203    0.0000 N   0  0  0  0  0  0  0  0  0  0  0  0
    4.9486   -9.1342    0.0000 N   0  0  0  0  0  0  0  0  0  0  0  0
    7.0891   -7.8888    0.0000 Br  0  0  0  0  0  0  0  0  0  0  0  0
 18  9  1  0
  9  5  2  0
  4  1  2  0
  9 10  1  0
 10 11  1  0
  2  3  2  0
 11 12  2  0
  5  6  1  0
 12 13  1  0
  3  6  1  0
 13 14  2  0
  6  7  2  0
 14 15  1  0
  1  2  1  0
 15 16  2  0
 16 11  1  0
  7  8  1  0
 12 17  1  0
  8 18  2  0
  5  4  1  0
 13 19  1  0
M  END
>  <ACTIVITY>  (70) 
10

$$$$

     RDKit          2D

 19 21  0  0  0  0  0  0  0  0999 V2000
   -4.4598   -8.9625    0.0000 N   0  0  0  0  0  0  0  0  0  0  0  0
   -4.4609   -9.7898    0.0000 C   0  0  0  0  0  0  0  0  0  0  0  0
   -3.7461  -10.2027    0.0000 C   0  0  0  0  0  0  0  0  0  0  0  0
   -3.7479   -8.5497    0.0000 C   0  0  0  0  0  0  0  0  0  0  0  0
   -3.0325   -8.9588    0.0000 C   0  0  0  0  0  0  0  0  0  0  0  0
   -3.0318   -9.7857    0.0000 C   0  0  0  0  0  0  0  0  0  0  0  0
   -2.3165  -10.1966    0.0000 N   0  0  0  0  0  0  0  0  0  0  0  0
   -1.6014   -9.7819    0.0000 C   0  0  0  0  0  0  0  0  0  0  0  0
   -2.3221   -8.5447    0.0000 C   0  0  0  0  0  0  0  0  0  0  0  0
   -2.3265   -7.7197    0.0000 N   0  0  0  0  0  0  0  0  0  0  0  0
   -1.6142   -7.3034    0.0000 C   0  0  0  0  0  0  0  0  0  0  0  0
   -0.9022   -7.7155    0.0000 C   0  0  0  0  0  0  0  0  0  0  0  0
   -0.1904   -7.2999    0.0000 C   0  0  0  0  0  0  0  0  0  0  0  0
   -0.1943   -6.4741    0.0000 C   0  0  0  0  0  0  0  0  0  0  0  0
   -0.9160   -6.0655    0.0000 C   0  0  0  0  0  0  0  0  0  0  0  0
   -1.6248   -6.4835    0.0000 C   0  0  0  0  0  0  0  0  0  0  0  0
   -0.9006   -8.5405    0.0000 N   0  0  0  0  0  0  0  0  0  0  0  0
   -1.6143   -8.9544    0.0000 N   0  0  0  0  0  0  0  0  0  0  0  0
   -5.1757  -10.2018    0.0000 Br  0  0  0  0  0  0  0  0  0  0  0  0
 18  9  1  0
  9  5  2  0
  4  1  2  0
  9 10  1  0
 10 11  1  0
  2  3  2  0
 11 12  2  0
  5  6  1  0
 12 13  1  0
  3  6  1  0
 13 14  2  0
  6  7  2  0
 14 15  1  0
  1  2  1  0
 15 16  2  0
 16 11  1  0
  7  8  1  0
 12 17  1  0
  8 18  2  0
  5  4  1  0
  2 19  1  0
M  END
>  <ACTIVITY>  (71) 
245.47

$$$$

     RDKit          2D

 21 23  0  0  0  0  0  0  0  0999 V2000
    9.6319   -4.1833    0.0000 N   0  0  0  0  0  0  0  0  0  0  0  0
    9.6307   -5.0107    0.0000 C   0  0  0  0  0  0  0  0  0  0  0  0
   10.3456   -5.4235    0.0000 C   0  0  0  0  0  0  0  0  0  0  0  0
   10.3438   -3.7705    0.0000 C   0  0  0  0  0  0  0  0  0  0  0  0
   11.0591   -4.1797    0.0000 C   0  0  0  0  0  0  0  0  0  0  0  0
   11.0599   -5.0065    0.0000 C   0  0  0  0  0  0  0  0  0  0  0  0
   11.7752   -5.4175    0.0000 N   0  0  0  0  0  0  0  0  0  0  0  0
   12.4902   -5.0027    0.0000 C   0  0  0  0  0  0  0  0  0  0  0  0
   11.7696   -3.7655    0.0000 C   0  0  0  0  0  0  0  0  0  0  0  0
   11.7652   -2.9405    0.0000 N   0  0  0  0  0  0  0  0  0  0  0  0
   12.4775   -2.5242    0.0000 C   0  0  0  0  0  0  0  0  0  0  0  0
   13.1895   -2.9364    0.0000 C   0  0  0  0  0  0  0  0  0  0  0  0
   13.9013   -2.5208    0.0000 C   0  0  0  0  0  0  0  0  0  0  0  0
   13.8974   -1.6949    0.0000 C   0  0  0  0  0  0  0  0  0  0  0  0
   13.1757   -1.2864    0.0000 C   0  0  0  0  0  0  0  0  0  0  0  0
   12.4669   -1.7043    0.0000 C   0  0  0  0  0  0  0  0  0  0  0  0
   13.1911   -3.7614    0.0000 N   0  0  0  0  0  0  0  0  0  0  0  0
   12.4774   -4.1752    0.0000 N   0  0  0  0  0  0  0  0  0  0  0  0
   14.6191   -2.9298    0.0000 N   0  0  0  0  0  0  0  0  0  0  0  0
   15.3316   -2.5139    0.0000 O   0  0  0  0  0  0  0  0  0  0  0  0
   14.6231   -3.7548    0.0000 O   0  0  0  0  0  0  0  0  0  0  0  0
  4  1  2  0
  9 10  1  0
 10 11  1  0
  2  3  2  0
 11 12  2  0
  5  6  2  0
 12 13  1  0
  3  6  1  0
 13 14  2  0
  6  7  1  0
 14 15  1  0
  1  2  1  0
 15 16  2  0
 16 11  1  0
  7  8  2  0
 12 17  1  0
  8 18  1  0
  5  4  1  0
 18  9  2  0
  9  5  1  0
 19 20  2  0
 19 21  1  0
 13 19  1  0
M  CHG  2  19   1  21  -1
M  END
>  <ACTIVITY>  (72) 
40.74

$$$$

     RDKit          2D

 18 20  0  0  0  0  0  0  0  0999 V2000
    2.5446   -4.3629    0.0000 N   0  0  0  0  0  0  0  0  0  0  0  0
    2.5434   -5.1903    0.0000 C   0  0  0  0  0  0  0  0  0  0  0  0
    3.2584   -5.6032    0.0000 C   0  0  0  0  0  0  0  0  0  0  0  0
    3.2566   -3.9501    0.0000 C   0  0  0  0  0  0  0  0  0  0  0  0
    3.9720   -4.3592    0.0000 C   0  0  0  0  0  0  0  0  0  0  0  0
    3.9728   -5.1862    0.0000 C   0  0  0  0  0  0  0  0  0  0  0  0
    4.6882   -5.5971    0.0000 N   0  0  0  0  0  0  0  0  0  0  0  0
    5.4032   -5.1824    0.0000 C   0  0  0  0  0  0  0  0  0  0  0  0
    4.6826   -3.9451    0.0000 C   0  0  0  0  0  0  0  0  0  0  0  0
    4.6782   -3.1200    0.0000 N   0  0  0  0  0  0  0  0  0  0  0  0
    5.3905   -2.7037    0.0000 C   0  0  0  0  0  0  0  0  0  0  0  0
    6.1026   -3.1158    0.0000 C   0  0  0  0  0  0  0  0  0  0  0  0
    6.8145   -2.7002    0.0000 C   0  0  0  0  0  0  0  0  0  0  0  0
    6.8106   -1.8743    0.0000 C   0  0  0  0  0  0  0  0  0  0  0  0
    6.0888   -1.4656    0.0000 C   0  0  0  0  0  0  0  0  0  0  0  0
    5.3799   -1.8837    0.0000 C   0  0  0  0  0  0  0  0  0  0  0  0
    6.1042   -3.9409    0.0000 N   0  0  0  0  0  0  0  0  0  0  0  0
    5.3904   -4.3548    0.0000 N   0  0  0  0  0  0  0  0  0  0  0  0
  5  4  1  0
 18  9  1  0
  9  5  2  0
  4  1  2  0
  9 10  1  0
 10 11  1  0
  2  3  2  0
 11 12  2  0
  5  6  1  0
 12 13  1  0
  3  6  1  0
 13 14  2  0
  6  7  2  0
 14 15  1  0
  1  2  1  0
 15 16  2  0
 16 11  1  0
  7  8  1  0
 12 17  1  0
  8 18  2  0
M  END
>  <ACTIVITY>  (73) 
251.19

$$$$

     RDKit          2D

 20 22  0  0  0  0  0  0  0  0999 V2000
   -5.0473   -4.3291    0.0000 N   0  0  0  0  0  0  0  0  0  0  0  0
   -5.0484   -5.1565    0.0000 C   0  0  0  0  0  0  0  0  0  0  0  0
   -4.3336   -5.5694    0.0000 C   0  0  0  0  0  0  0  0  0  0  0  0
   -4.3354   -3.9164    0.0000 C   0  0  0  0  0  0  0  0  0  0  0  0
   -3.6200   -4.3255    0.0000 C   0  0  0  0  0  0  0  0  0  0  0  0
   -3.6193   -5.1523    0.0000 C   0  0  0  0  0  0  0  0  0  0  0  0
   -2.9040   -5.5633    0.0000 N   0  0  0  0  0  0  0  0  0  0  0  0
   -2.1889   -5.1485    0.0000 C   0  0  0  0  0  0  0  0  0  0  0  0
   -2.9096   -3.9113    0.0000 C   0  0  0  0  0  0  0  0  0  0  0  0
   -2.9140   -3.0864    0.0000 N   0  0  0  0  0  0  0  0  0  0  0  0
   -2.2017   -2.6701    0.0000 C   0  0  0  0  0  0  0  0  0  0  0  0
   -1.4897   -3.0822    0.0000 C   0  0  0  0  0  0  0  0  0  0  0  0
   -0.7779   -2.6666    0.0000 C   0  0  0  0  0  0  0  0  0  0  0  0
   -0.7818   -1.8407    0.0000 C   0  0  0  0  0  0  0  0  0  0  0  0
   -1.5035   -1.4322    0.0000 C   0  0  0  0  0  0  0  0  0  0  0  0
   -2.2123   -1.8502    0.0000 C   0  0  0  0  0  0  0  0  0  0  0  0
   -0.0614   -3.0756    0.0000 Br  0  0  0  0  0  0  0  0  0  0  0  0
   -1.4881   -3.9072    0.0000 O   0  0  0  0  0  0  0  0  0  0  0  0
   -2.2018   -4.3210    0.0000 N   0  0  0  0  0  0  0  0  0  0  0  0
   -0.7728   -4.3183    0.0000 C   0  0  0  0  0  0  0  0  0  0  0  0
  9  5  2  0
  4  1  2  0
  9 10  1  0
 10 11  1  0
  2  3  2  0
 11 12  2  0
  5  6  1  0
 12 13  1  0
  3  6  1  0
 13 14  2  0
  6  7  2  0
 14 15  1  0
  1  2  1  0
 15 16  2  0
 16 11  1  0
  7  8  1  0
 13 17  1  0
  8 19  2  0
 12 18  1  0
  5  4  1  0
 19  9  1  0
 18 20  1  0
M  END
>  <ACTIVITY>  (74) 
39.81

$$$$

     RDKit          2D

 19 21  0  0  0  0  0  0  0  0999 V2000
   10.8819    0.6292    0.0000 N   0  0  0  0  0  0  0  0  0  0  0  0
   10.8807   -0.1982    0.0000 C   0  0  0  0  0  0  0  0  0  0  0  0
   11.5956   -0.6110    0.0000 C   0  0  0  0  0  0  0  0  0  0  0  0
   11.5938    1.0420    0.0000 C   0  0  0  0  0  0  0  0  0  0  0  0
   12.3091    0.6328    0.0000 C   0  0  0  0  0  0  0  0  0  0  0  0
   12.3099   -0.1940    0.0000 C   0  0  0  0  0  0  0  0  0  0  0  0
   13.0252   -0.6050    0.0000 N   0  0  0  0  0  0  0  0  0  0  0  0
   13.7402   -0.1902    0.0000 C   0  0  0  0  0  0  0  0  0  0  0  0
   13.7355    0.6398    0.0000 N   0  0  0  0  0  0  0  0  0  0  0  0
   13.0196    1.0470    0.0000 C   0  0  0  0  0  0  0  0  0  0  0  0
   13.0152    1.8720    0.0000 N   0  0  0  0  0  0  0  0  0  0  0  0
   13.7275    2.2883    0.0000 C   0  0  0  0  0  0  0  0  0  0  0  0
   14.4395    1.8761    0.0000 C   0  0  0  0  0  0  0  0  0  0  0  0
   15.1513    2.2917    0.0000 C   0  0  0  0  0  0  0  0  0  0  0  0
   15.1474    3.1176    0.0000 C   0  0  0  0  0  0  0  0  0  0  0  0
   14.4257    3.5261    0.0000 C   0  0  0  0  0  0  0  0  0  0  0  0
   13.7169    3.1082    0.0000 C   0  0  0  0  0  0  0  0  0  0  0  0
   15.8677    1.8827    0.0000 Br  0  0  0  0  0  0  0  0  0  0  0  0
   14.4411    1.0511    0.0000 F   0  0  0  0  0  0  0  0  0  0  0  0
  4  1  2  0
  9 10  1  0
 10  5  2  0
 10 11  1  0
  2  3  2  0
 11 12  1  0
  5  6  1  0
 12 13  2  0
  3  6  1  0
 13 14  1  0
  6  7  2  0
 14 15  2  0
  1  2  1  0
 15 16  1  0
  7  8  1  0
 16 17  2  0
 17 12  1  0
  5  4  1  0
 14 18  1  0
  8  9  2  0
 13 19  1  0
M  END
>  <ACTIVITY>  (75) 
13.18

$$$$

     RDKit          2D

 22 24  0  0  0  0  0  0  0  0999 V2000
    3.1444    0.7042    0.0000 N   0  0  0  0  0  0  0  0  0  0  0  0
    3.1432   -0.1232    0.0000 C   0  0  0  0  0  0  0  0  0  0  0  0
    3.8581   -0.5360    0.0000 C   0  0  0  0  0  0  0  0  0  0  0  0
    3.8563    1.1170    0.0000 C   0  0  0  0  0  0  0  0  0  0  0  0
    4.5716    0.7078    0.0000 C   0  0  0  0  0  0  0  0  0  0  0  0
    4.5724   -0.1190    0.0000 C   0  0  0  0  0  0  0  0  0  0  0  0
    5.2877   -0.5300    0.0000 N   0  0  0  0  0  0  0  0  0  0  0  0
    6.0027   -0.1152    0.0000 C   0  0  0  0  0  0  0  0  0  0  0  0
    5.2821    1.1220    0.0000 C   0  0  0  0  0  0  0  0  0  0  0  0
    5.2777    1.9470    0.0000 N   0  0  0  0  0  0  0  0  0  0  0  0
    5.9900    2.3633    0.0000 C   0  0  0  0  0  0  0  0  0  0  0  0
    6.7020    1.9511    0.0000 C   0  0  0  0  0  0  0  0  0  0  0  0
    7.4138    2.3667    0.0000 C   0  0  0  0  0  0  0  0  0  0  0  0
    7.4099    3.1926    0.0000 C   0  0  0  0  0  0  0  0  0  0  0  0
    6.6882    3.6011    0.0000 C   0  0  0  0  0  0  0  0  0  0  0  0
    5.9794    3.1832    0.0000 C   0  0  0  0  0  0  0  0  0  0  0  0
    8.1302    1.9577    0.0000 Br  0  0  0  0  0  0  0  0  0  0  0  0
    6.7036    1.1261    0.0000 N   0  0  0  0  0  0  0  0  0  0  0  0
    5.9899    0.7123    0.0000 N   0  0  0  0  0  0  0  0  0  0  0  0
    7.4188    0.7150    0.0000 C   0  0  0  0  0  0  0  0  0  0  0  0
    7.4224   -0.1092    0.0000 O   0  0  0  0  0  0  0  0  0  0  0  0
    8.1345    1.1297    0.0000 C   0  0  0  0  0  0  0  0  0  0  0  0
  9 10  1  0
 10 11  1  0
  2  3  1  0
 11 12  2  0
  5  6  1  0
 12 13  1  0
  3  6  2  0
 13 14  2  0
  6  7  1  0
 14 15  1  0
  1  2  2  0
 15 16  2  0
 16 11  1  0
  7  8  2  0
 13 17  1  0
  8 19  1  0
 12 18  1  0
  5  4  2  0
 19  9  2  0
 18 20  1  0
  9  5  1  0
  4  1  1  0
 20 21  2  0
 20 22  1  0
M  END
>  <ACTIVITY>  (76) 
29.51

$$$$

     RDKit          2D

 18 20  0  0  0  0  0  0  0  0999 V2000
    3.6667   -2.1125    0.0000 C   0  0  0  0  0  0  0  0  0  0  0  0
    2.9625   -2.5292    0.0000 C   0  0  0  0  0  0  0  0  0  0  0  0
    4.3875   -2.5167    0.0000 N   0  0  0  0  0  0  0  0  0  0  0  0
    3.6667   -1.2875    0.0000 N   0  0  0  0  0  0  0  0  0  0  0  0
    3.6792   -3.7667    0.0000 N   0  0  0  0  0  0  0  0  0  0  0  0
    4.3917   -3.3500    0.0000 C   0  0  0  0  0  0  0  0  0  0  0  0
    2.9625   -3.3542    0.0000 C   0  0  0  0  0  0  0  0  0  0  0  0
    4.3792   -0.8667    0.0000 C   0  0  0  0  0  0  0  0  0  0  0  0
    1.5292   -2.5292    0.0000 N   0  0  0  0  0  0  0  0  0  0  0  0
    5.0917   -1.2792    0.0000 C   0  0  0  0  0  0  0  0  0  0  0  0
    2.2417   -2.1167    0.0000 C   0  0  0  0  0  0  0  0  0  0  0  0
    5.8042   -0.8667    0.0000 C   0  0  0  0  0  0  0  0  0  0  0  0
    2.2417   -3.7667    0.0000 C   0  0  0  0  0  0  0  0  0  0  0  0
    6.5167   -1.2792    0.0000 Br  0  0  0  0  0  0  0  0  0  0  0  0
    1.5292   -3.3542    0.0000 C   0  0  0  0  0  0  0  0  0  0  0  0
    5.0792    0.3708    0.0000 C   0  0  0  0  0  0  0  0  0  0  0  0
    4.3667   -0.0542    0.0000 C   0  0  0  0  0  0  0  0  0  0  0  0
    5.8000   -0.0417    0.0000 C   0  0  0  0  0  0  0  0  0  0  0  0
  2  1  1  0
  3  1  2  0
  4  1  1  0
  5  6  2  0
  6  3  1  0
  7  2  2  0
  8  4  1  0
  9 11  2  0
 10  8  2  0
 11  2  1  0
 12 10  1  0
 13  7  1  0
 14 12  1  0
 15  9  1  0
 16 17  2  0
 17  8  1  0
 18 16  1  0
  5  7  1  0
 13 15  2  0
 18 12  2  0
M  END
>  <ACTIVITY>  (77) 
35.48

$$$$

     RDKit          2D

 20 22  0  0  0  0  0  0  0  0999 V2000
    3.2167   -3.7125    0.0000 C   0  0  0  0  0  0  0  0  0  0  0  0
    3.7417   -3.4042    0.0000 C   0  0  0  0  0  0  0  0  0  0  0  0
    2.7000   -3.4042    0.0000 N   0  0  0  0  0  0  0  0  0  0  0  0
    4.2667   -3.7125    0.0000 N   0  0  0  0  0  0  0  0  0  0  0  0
    3.7375   -2.8042    0.0000 N   0  0  0  0  0  0  0  0  0  0  0  0
    3.2167   -4.3167    0.0000 C   0  0  0  0  0  0  0  0  0  0  0  0
    2.1792   -3.7125    0.0000 C   0  0  0  0  0  0  0  0  0  0  0  0
    3.7417   -4.6167    0.0000 N   0  0  0  0  0  0  0  0  0  0  0  0
    4.2667   -4.3167    0.0000 C   0  0  0  0  0  0  0  0  0  0  0  0
    4.2542   -2.5042    0.0000 C   0  0  0  0  0  0  0  0  0  0  0  0
    4.7792   -2.8000    0.0000 C   0  0  0  0  0  0  0  0  0  0  0  0
    2.7000   -4.6167    0.0000 C   0  0  0  0  0  0  0  0  0  0  0  0
    2.1792   -4.3167    0.0000 C   0  0  0  0  0  0  0  0  0  0  0  0
    5.3042   -2.5000    0.0000 C   0  0  0  0  0  0  0  0  0  0  0  0
    5.8292   -2.8000    0.0000 Br  0  0  0  0  0  0  0  0  0  0  0  0
    1.6542   -3.4042    0.0000 O   0  0  0  0  0  0  0  0  0  0  0  0
    4.7750   -1.5917    0.0000 C   0  0  0  0  0  0  0  0  0  0  0  0
    4.2542   -1.9000    0.0000 C   0  0  0  0  0  0  0  0  0  0  0  0
    5.3042   -1.8917    0.0000 C   0  0  0  0  0  0  0  0  0  0  0  0
    1.1292   -3.7125    0.0000 C   0  0  0  0  0  0  0  0  0  0  0  0
  2  1  1  0
  3  1  2  0
  4  2  2  0
  5  2  1  0
  6  1  1  0
  7  3  1  0
  8  6  1  0
  9  8  2  0
 10  5  1  0
 11 10  2  0
 12  6  2  0
 13 12  1  0
 14 11  1  0
 15 14  1  0
 16  7  1  0
 17 18  2  0
 18 10  1  0
 19 17  1  0
 20 16  1  0
 13  7  2  0
  9  4  1  0
 19 14  2  0
M  END
>  <ACTIVITY>  (78) 
4.37

$$$$

     RDKit          2D

 21 23  0  0  0  0  0  0  0  0999 V2000
    2.7000   -3.4042    0.0000 N   0  0  0  0  0  0  0  0  0  0  0  0
    3.2167   -3.7125    0.0000 C   0  0  0  0  0  0  0  0  0  0  0  0
    3.7417   -3.4042    0.0000 C   0  0  0  0  0  0  0  0  0  0  0  0
    2.1792   -3.7125    0.0000 C   0  0  0  0  0  0  0  0  0  0  0  0
    4.2667   -3.7125    0.0000 N   0  0  0  0  0  0  0  0  0  0  0  0
    3.7375   -2.8042    0.0000 N   0  0  0  0  0  0  0  0  0  0  0  0
    3.2167   -4.3167    0.0000 C   0  0  0  0  0  0  0  0  0  0  0  0
    3.7417   -4.6167    0.0000 N   0  0  0  0  0  0  0  0  0  0  0  0
    4.2667   -4.3167    0.0000 C   0  0  0  0  0  0  0  0  0  0  0  0
    1.6542   -3.4042    0.0000 N   0  0  0  0  0  0  0  0  0  0  0  0
    4.2542   -2.5042    0.0000 C   0  0  0  0  0  0  0  0  0  0  0  0
    2.1792   -4.3167    0.0000 C   0  0  0  0  0  0  0  0  0  0  0  0
    4.7792   -2.8000    0.0000 C   0  0  0  0  0  0  0  0  0  0  0  0
    2.7000   -4.6167    0.0000 C   0  0  0  0  0  0  0  0  0  0  0  0
    5.3042   -2.5000    0.0000 C   0  0  0  0  0  0  0  0  0  0  0  0
    5.8292   -2.8000    0.0000 Br  0  0  0  0  0  0  0  0  0  0  0  0
    4.7750   -1.5917    0.0000 C   0  0  0  0  0  0  0  0  0  0  0  0
    4.2542   -1.9000    0.0000 C   0  0  0  0  0  0  0  0  0  0  0  0
    1.1292   -3.7125    0.0000 C   0  0  0  0  0  0  0  0  0  0  0  0
    1.3500   -2.8875    0.0000 C   0  0  0  0  0  0  0  0  0  0  0  0
    5.3042   -1.8917    0.0000 C   0  0  0  0  0  0  0  0  0  0  0  0
  2  1  2  0
  3  2  1  0
  4  1  1  0
  5  3  2  0
  6  3  1  0
  7  2  1  0
  8  7  1  0
  9  8  2  0
 10  4  1  0
 11  6  1  0
 12  4  2  0
 13 11  2  0
 14 12  1  0
 15 13  1  0
 16 15  1  0
 17 18  2  0
 18 11  1  0
 19 10  1  0
 20 10  1  0
 21 17  1  0
  7 14  2  0
  9  5  1  0
 21 15  2  0
M  END
>  <ACTIVITY>  (79) 
9.77

$$$$

     RDKit          2D

 20 22  0  0  0  0  0  0  0  0999 V2000
    4.0167   -3.5500    0.0000 C   0  0  0  0  0  0  0  0  0  0  0  0
    4.7292   -3.1375    0.0000 C   0  0  0  0  0  0  0  0  0  0  0  0
    3.3042   -3.1375    0.0000 N   0  0  0  0  0  0  0  0  0  0  0  0
    5.4500   -3.5500    0.0000 N   0  0  0  0  0  0  0  0  0  0  0  0
    4.7292   -2.3125    0.0000 N   0  0  0  0  0  0  0  0  0  0  0  0
    4.0167   -4.3750    0.0000 C   0  0  0  0  0  0  0  0  0  0  0  0
    2.5917   -3.5500    0.0000 C   0  0  0  0  0  0  0  0  0  0  0  0
    4.7292   -4.7875    0.0000 N   0  0  0  0  0  0  0  0  0  0  0  0
    5.4500   -4.3750    0.0000 C   0  0  0  0  0  0  0  0  0  0  0  0
    5.4417   -1.9000    0.0000 C   0  0  0  0  0  0  0  0  0  0  0  0
    6.1542   -2.3125    0.0000 C   0  0  0  0  0  0  0  0  0  0  0  0
    3.3042   -4.7875    0.0000 C   0  0  0  0  0  0  0  0  0  0  0  0
    1.8667   -3.1375    0.0000 N   0  0  0  0  0  0  0  0  0  0  0  0
    2.5917   -4.3750    0.0000 C   0  0  0  0  0  0  0  0  0  0  0  0
    6.8750   -1.9000    0.0000 C   0  0  0  0  0  0  0  0  0  0  0  0
    7.5917   -2.3167    0.0000 Br  0  0  0  0  0  0  0  0  0  0  0  0
    6.1542   -0.6542    0.0000 C   0  0  0  0  0  0  0  0  0  0  0  0
    5.4417   -1.0667    0.0000 C   0  0  0  0  0  0  0  0  0  0  0  0
    6.8750   -1.0667    0.0000 C   0  0  0  0  0  0  0  0  0  0  0  0
    1.1542   -3.5500    0.0000 C   0  0  0  0  0  0  0  0  0  0  0  0
  2  1  1  0
  3  1  2  0
  4  2  2  0
  5  2  1  0
  6  1  1  0
  7  3  1  0
  8  6  1  0
  9  8  2  0
 10  5  1  0
 11 10  2  0
 12  6  2  0
 13  7  1  0
 14 12  1  0
 15 11  1  0
 16 15  1  0
 17 18  2  0
 18 10  1  0
 19 17  1  0
 20 13  1  0
 14  7  2  0
  9  4  1  0
 19 15  2  0
M  END
>  <ACTIVITY>  (80) 
3.16

$$$$

     RDKit          2D

 19 21  0  0  0  0  0  0  0  0999 V2000
    2.9625   -2.5292    0.0000 C   0  0  0  0  0  0  0  0  0  0  0  0
    3.6667   -2.1125    0.0000 C   0  0  0  0  0  0  0  0  0  0  0  0
    2.2417   -2.1167    0.0000 N   0  0  0  0  0  0  0  0  0  0  0  0
    4.3875   -2.5167    0.0000 N   0  0  0  0  0  0  0  0  0  0  0  0
    3.6667   -1.2875    0.0000 N   0  0  0  0  0  0  0  0  0  0  0  0
    2.9625   -3.3542    0.0000 C   0  0  0  0  0  0  0  0  0  0  0  0
    1.5292   -2.5292    0.0000 C   0  0  0  0  0  0  0  0  0  0  0  0
    3.6792   -3.7667    0.0000 N   0  0  0  0  0  0  0  0  0  0  0  0
    4.3917   -3.3500    0.0000 C   0  0  0  0  0  0  0  0  0  0  0  0
    4.3750   -0.8750    0.0000 C   0  0  0  0  0  0  0  0  0  0  0  0
    5.0917   -1.2750    0.0000 C   0  0  0  0  0  0  0  0  0  0  0  0
    2.2417   -3.7667    0.0000 C   0  0  0  0  0  0  0  0  0  0  0  0
    1.5292   -3.3542    0.0000 C   0  0  0  0  0  0  0  0  0  0  0  0
    5.8042   -0.8667    0.0000 C   0  0  0  0  0  0  0  0  0  0  0  0
    0.8167   -2.1167    0.0000 F   0  0  0  0  0  0  0  0  0  0  0  0
    6.5167   -1.2750    0.0000 Br  0  0  0  0  0  0  0  0  0  0  0  0
    5.0792    0.3708    0.0000 C   0  0  0  0  0  0  0  0  0  0  0  0
    4.3667   -0.0542    0.0000 C   0  0  0  0  0  0  0  0  0  0  0  0
    5.8000   -0.0417    0.0000 C   0  0  0  0  0  0  0  0  0  0  0  0
  2  1  1  0
  3  1  2  0
  4  2  2  0
  5  2  1  0
  6  1  1  0
  7  3  1  0
  8  6  1  0
  9  8  2  0
 10  5  1  0
 11 10  2  0
 12  6  2  0
 13 12  1  0
 14 11  1  0
 15  7  1  0
 16 14  1  0
 17 18  2  0
 18 10  1  0
 19 17  1  0
 13  7  2  0
  9  4  1  0
 19 14  2  0
M  END
>  <ACTIVITY>  (81) 
44.67

$$$$

     RDKit          2D

 19 21  0  0  0  0  0  0  0  0999 V2000
    2.9625   -2.5292    0.0000 C   0  0  0  0  0  0  0  0  0  0  0  0
    3.6667   -2.1125    0.0000 C   0  0  0  0  0  0  0  0  0  0  0  0
    2.2417   -2.1167    0.0000 N   0  0  0  0  0  0  0  0  0  0  0  0
    4.3875   -2.5167    0.0000 N   0  0  0  0  0  0  0  0  0  0  0  0
    3.6667   -1.2875    0.0000 N   0  0  0  0  0  0  0  0  0  0  0  0
    2.9625   -3.3542    0.0000 C   0  0  0  0  0  0  0  0  0  0  0  0
    1.5292   -2.5292    0.0000 C   0  0  0  0  0  0  0  0  0  0  0  0
    3.6792   -3.7667    0.0000 N   0  0  0  0  0  0  0  0  0  0  0  0
    4.3917   -3.3500    0.0000 C   0  0  0  0  0  0  0  0  0  0  0  0
    4.3750   -0.8750    0.0000 C   0  0  0  0  0  0  0  0  0  0  0  0
    5.0917   -1.2750    0.0000 C   0  0  0  0  0  0  0  0  0  0  0  0
    2.2417   -3.7667    0.0000 C   0  0  0  0  0  0  0  0  0  0  0  0
    1.5292   -3.3542    0.0000 C   0  0  0  0  0  0  0  0  0  0  0  0
    5.8042   -0.8667    0.0000 C   0  0  0  0  0  0  0  0  0  0  0  0
    0.8167   -2.1167    0.0000 Cl  0  0  0  0  0  0  0  0  0  0  0  0
    6.5167   -1.2750    0.0000 Br  0  0  0  0  0  0  0  0  0  0  0  0
    5.0792    0.3708    0.0000 C   0  0  0  0  0  0  0  0  0  0  0  0
    4.3667   -0.0542    0.0000 C   0  0  0  0  0  0  0  0  0  0  0  0
    5.8000   -0.0417    0.0000 C   0  0  0  0  0  0  0  0  0  0  0  0
  2  1  1  0
  3  1  2  0
  4  2  2  0
  5  2  1  0
  6  1  1  0
  7  3  1  0
  8  6  1  0
  9  8  2  0
 10  5  1  0
 11 10  2  0
 12  6  2  0
 13 12  1  0
 14 11  1  0
 15  7  1  0
 16 14  1  0
 17 18  2  0
 18 10  1  0
 19 17  1  0
 13  7  2  0
  9  4  1  0
 19 14  2  0
M  END
>  <ACTIVITY>  (82) 
18.2

$$$$

     RDKit          2D

 19 21  0  0  0  0  0  0  0  0999 V2000
    3.2167   -3.7125    0.0000 C   0  0  0  0  0  0  0  0  0  0  0  0
    3.7417   -3.4042    0.0000 C   0  0  0  0  0  0  0  0  0  0  0  0
    2.7000   -3.4042    0.0000 N   0  0  0  0  0  0  0  0  0  0  0  0
    4.2667   -3.7125    0.0000 N   0  0  0  0  0  0  0  0  0  0  0  0
    3.7375   -2.8042    0.0000 N   0  0  0  0  0  0  0  0  0  0  0  0
    3.2167   -4.3167    0.0000 C   0  0  0  0  0  0  0  0  0  0  0  0
    2.1792   -3.7125    0.0000 C   0  0  0  0  0  0  0  0  0  0  0  0
    3.7417   -4.6167    0.0000 N   0  0  0  0  0  0  0  0  0  0  0  0
    4.2667   -4.3167    0.0000 C   0  0  0  0  0  0  0  0  0  0  0  0
    4.2542   -2.5042    0.0000 C   0  0  0  0  0  0  0  0  0  0  0  0
    4.7792   -2.8000    0.0000 C   0  0  0  0  0  0  0  0  0  0  0  0
    2.7000   -4.6167    0.0000 C   0  0  0  0  0  0  0  0  0  0  0  0
    1.6542   -3.4042    0.0000 N   0  0  0  0  0  0  0  0  0  0  0  0
    2.1792   -4.3167    0.0000 C   0  0  0  0  0  0  0  0  0  0  0  0
    5.3042   -2.5000    0.0000 C   0  0  0  0  0  0  0  0  0  0  0  0
    5.8292   -2.8000    0.0000 Br  0  0  0  0  0  0  0  0  0  0  0  0
    4.7750   -1.5917    0.0000 C   0  0  0  0  0  0  0  0  0  0  0  0
    4.2542   -1.9000    0.0000 C   0  0  0  0  0  0  0  0  0  0  0  0
    5.3042   -1.8917    0.0000 C   0  0  0  0  0  0  0  0  0  0  0  0
  2  1  1  0
  3  1  2  0
  4  2  2  0
  5  2  1  0
  6  1  1  0
  7  3  1  0
  8  6  1  0
  9  8  2  0
 10  5  1  0
 11 10  2  0
 12  6  2  0
 13  7  1  0
 14 12  1  0
 15 11  1  0
 16 15  1  0
 17 18  2  0
 18 10  1  0
 19 17  1  0
 14  7  2  0
  9  4  1  0
 19 15  2  0
M  END
>  <ACTIVITY>  (83) 
7.76

$$$$

     RDKit          2D

 18 20  0  0  0  0  0  0  0  0999 V2000
    3.6667   -2.1125    0.0000 C   0  0  0  0  0  0  0  0  0  0  0  0
    2.9625   -2.5292    0.0000 C   0  0  0  0  0  0  0  0  0  0  0  0
    4.3875   -2.5167    0.0000 N   0  0  0  0  0  0  0  0  0  0  0  0
    3.6667   -1.2875    0.0000 N   0  0  0  0  0  0  0  0  0  0  0  0
    2.2417   -2.1167    0.0000 N   0  0  0  0  0  0  0  0  0  0  0  0
    3.6792   -3.7667    0.0000 N   0  0  0  0  0  0  0  0  0  0  0  0
    4.3917   -3.3500    0.0000 C   0  0  0  0  0  0  0  0  0  0  0  0
    2.9625   -3.3542    0.0000 C   0  0  0  0  0  0  0  0  0  0  0  0
    4.3750   -0.8750    0.0000 C   0  0  0  0  0  0  0  0  0  0  0  0
    5.0917   -1.2750    0.0000 C   0  0  0  0  0  0  0  0  0  0  0  0
    5.8042   -0.8667    0.0000 C   0  0  0  0  0  0  0  0  0  0  0  0
    6.5167   -1.2750    0.0000 Br  0  0  0  0  0  0  0  0  0  0  0  0
    5.0792    0.3708    0.0000 C   0  0  0  0  0  0  0  0  0  0  0  0
    1.5292   -2.5292    0.0000 C   0  0  0  0  0  0  0  0  0  0  0  0
    4.3667   -0.0542    0.0000 C   0  0  0  0  0  0  0  0  0  0  0  0
    5.8000   -0.0417    0.0000 C   0  0  0  0  0  0  0  0  0  0  0  0
    2.2417   -3.7667    0.0000 C   0  0  0  0  0  0  0  0  0  0  0  0
    1.5292   -3.3542    0.0000 C   0  0  0  0  0  0  0  0  0  0  0  0
  2  1  1  0
  3  1  2  0
  4  1  1  0
  5  2  2  0
  6  7  2  0
  7  3  1  0
  8  2  1  0
  9  4  1  0
 10  9  2  0
 11 10  1  0
 12 11  1  0
 13 15  2  0
 14  5  1  0
 15  9  1  0
 16 13  1  0
 17  8  2  0
 18 17  1  0
  6  8  1  0
 18 14  2  0
 16 11  2  0
M  END
>  <ACTIVITY>  (84) 
34.67

$$$$

     RDKit          2D

 22 24  0  0  0  0  0  0  0  0999 V2000
    4.9069   -7.8416    0.0000 C   0  0  0  0  0  0  0  0  0  0  0  0
    4.9057   -8.6690    0.0000 C   0  0  0  0  0  0  0  0  0  0  0  0
    5.6206   -9.0819    0.0000 C   0  0  0  0  0  0  0  0  0  0  0  0
    5.6188   -7.4289    0.0000 C   0  0  0  0  0  0  0  0  0  0  0  0
    6.3341   -7.8380    0.0000 C   0  0  0  0  0  0  0  0  0  0  0  0
    6.3349   -8.6648    0.0000 C   0  0  0  0  0  0  0  0  0  0  0  0
    7.0502   -9.0758    0.0000 C   0  0  0  0  0  0  0  0  0  0  0  0
    7.7652   -8.6610    0.0000 N   0  0  0  0  0  0  0  0  0  0  0  0
    7.7605   -7.8311    0.0000 C   0  0  0  0  0  0  0  0  0  0  0  0
    7.0446   -7.4238    0.0000 N   0  0  0  0  0  0  0  0  0  0  0  0
    7.0519   -9.9008    0.0000 N   0  0  0  0  0  0  0  0  0  0  0  0
    7.7673  -10.3118    0.0000 C   0  0  0  0  0  0  0  0  0  0  0  0
    4.1923   -7.4293    0.0000 O   0  0  0  0  0  0  0  0  0  0  0  0
    3.4780   -7.8420    0.0000 C   0  0  0  0  0  0  0  0  0  0  0  0
    4.1909   -9.0809    0.0000 O   0  0  0  0  0  0  0  0  0  0  0  0
    3.4768   -8.6679    0.0000 C   0  0  0  0  0  0  0  0  0  0  0  0
    7.7656  -11.1344    0.0000 C   0  0  0  0  0  0  0  0  0  0  0  0
    8.4801  -11.5454    0.0000 C   0  0  0  0  0  0  0  0  0  0  0  0
    9.1947  -11.1313    0.0000 C   0  0  0  0  0  0  0  0  0  0  0  0
    9.1903  -10.3021    0.0000 C   0  0  0  0  0  0  0  0  0  0  0  0
    8.4752   -9.8949    0.0000 C   0  0  0  0  0  0  0  0  0  0  0  0
    9.9106  -11.5414    0.0000 Br  0  0  0  0  0  0  0  0  0  0  0  0
  7 11  1  0
  2  3  1  0
 11 12  1  0
  5  6  1  0
  1 13  1  0
  3  6  2  0
 13 14  1  0
  6  7  1  0
  2 15  1  0
  1  2  2  0
 15 16  1  0
  7  8  2  0
 12 17  2  0
  5  4  2  0
 17 18  1  0
  8  9  1  0
 18 19  2  0
  4  1  1  0
 19 20  1  0
  9 10  2  0
 20 21  2  0
 21 12  1  0
 10  5  1  0
 19 22  1  0
M  END
>  <ACTIVITY>  (85) 
0.0724

$$$$

     RDKit          2D

 26 28  0  0  0  0  0  0  0  0999 V2000
    0.8667   -1.0292    0.0000 C   0  0  0  0  0  0  0  0  0  0  0  0
    1.3792   -0.7292    0.0000 C   0  0  0  0  0  0  0  0  0  0  0  0
    0.8750   -1.6292    0.0000 C   0  0  0  0  0  0  0  0  0  0  0  0
    0.3417   -0.7417    0.0000 C   0  0  0  0  0  0  0  0  0  0  0  0
    1.9000   -1.0167    0.0000 N   0  0  0  0  0  0  0  0  0  0  0  0
    0.3625   -1.9417    0.0000 C   0  0  0  0  0  0  0  0  0  0  0  0
    1.3750   -0.1292    0.0000 N   0  0  0  0  0  0  0  0  0  0  0  0
   -0.1750   -1.0542    0.0000 C   0  0  0  0  0  0  0  0  0  0  0  0
   -0.1625   -1.6542    0.0000 C   0  0  0  0  0  0  0  0  0  0  0  0
    1.3917   -1.9250    0.0000 N   0  0  0  0  0  0  0  0  0  0  0  0
    1.9125   -1.6167    0.0000 C   0  0  0  0  0  0  0  0  0  0  0  0
    1.8917    0.1750    0.0000 C   0  0  0  0  0  0  0  0  0  0  0  0
    2.4125   -0.1167    0.0000 C   0  0  0  0  0  0  0  0  0  0  0  0
    2.9292    0.1833    0.0000 C   0  0  0  0  0  0  0  0  0  0  0  0
   -0.7000   -0.7625    0.0000 O   0  0  0  0  0  0  0  0  0  0  0  0
   -0.6833   -1.9667    0.0000 O   0  0  0  0  0  0  0  0  0  0  0  0
    3.4417   -0.1167    0.0000 Br  0  0  0  0  0  0  0  0  0  0  0  0
    2.4000    1.0833    0.0000 C   0  0  0  0  0  0  0  0  0  0  0  0
    1.8792    0.7750    0.0000 C   0  0  0  0  0  0  0  0  0  0  0  0
    2.9250    0.7833    0.0000 C   0  0  0  0  0  0  0  0  0  0  0  0
   -0.7125   -0.1542    0.0000 C   0  0  0  0  0  0  0  0  0  0  0  0
   -0.6708   -2.5625    0.0000 C   0  0  0  0  0  0  0  0  0  0  0  0
   -1.1833   -2.8667    0.0000 C   0  0  0  0  0  0  0  0  0  0  0  0
   -1.2375    0.1333    0.0000 C   0  0  0  0  0  0  0  0  0  0  0  0
   -1.2458    0.7333    0.0000 C   0  0  0  0  0  0  0  0  0  0  0  0
   -1.1750   -3.4667    0.0000 C   0  0  0  0  0  0  0  0  0  0  0  0
  2  1  1  0
  3  1  1  0
  4  1  2  0
  5  2  2  0
  6  3  2  0
  7  2  1  0
  8  4  1  0
  9  8  2  0
 10  3  1  0
 11 10  2  0
 12  7  1  0
 13 12  2  0
 14 13  1  0
 15  8  1  0
 16  9  1  0
 17 14  1  0
 18 19  2  0
 19 12  1  0
 20 18  1  0
 21 15  1  0
 22 16  1  0
 23 22  1  0
 24 21  1  0
 25 24  1  0
 26 23  1  0
  6  9  1  0
 11  5  1  0
 14 20  2  0
M  END
>  <ACTIVITY>  (86) 
0.174

$$$$

     RDKit          2D

 24 26  0  0  0  0  0  0  0  0999 V2000
    7.4282    6.0000    0.0000 C   0  0  0  0  0  0  0  0  0  0  0  0
    8.2942    3.5000    0.0000 C   0  0  0  0  0  0  0  0  0  0  0  0
    6.5622    6.5000    0.0000 C   0  0  0  0  0  0  0  0  0  0  0  0
    8.2942    4.5000    0.0000 C   0  0  0  0  0  0  0  0  0  0  0  0
    0.5000    3.0000    0.0000 C   0  0  0  0  0  0  0  0  0  0  0  0
    0.5000    2.0000    0.0000 C   0  0  0  0  0  0  0  0  0  0  0  0
    1.3660    3.5000    0.0000 C   0  0  0  0  0  0  0  0  0  0  0  0
    2.2321    2.0000    0.0000 C   0  0  0  0  0  0  0  0  0  0  0  0
    4.8301    4.5000    0.0000 C   0  0  0  0  0  0  0  0  0  0  0  0
    6.5622    3.5000    0.0000 C   0  0  0  0  0  0  0  0  0  0  0  0
    4.8301    1.5000    0.0000 C   0  0  0  0  0  0  0  0  0  0  0  0
    1.3660    1.5000    0.0000 C   0  0  0  0  0  0  0  0  0  0  0  0
    2.2321    3.0000    0.0000 C   0  0  0  0  0  0  0  0  0  0  0  0
    4.8301    3.5000    0.0000 C   0  0  0  0  0  0  0  0  0  0  0  0
    5.6962    3.0000    0.0000 C   0  0  0  0  0  0  0  0  0  0  0  0
    5.6962    5.0000    0.0000 C   0  0  0  0  0  0  0  0  0  0  0  0
    6.5622    4.5000    0.0000 C   0  0  0  0  0  0  0  0  0  0  0  0
    3.9641    3.0000    0.0000 C   0  0  0  0  0  0  0  0  0  0  0  0
    1.3660    0.5000    0.0000 Br  0  0  0  0  0  0  0  0  0  0  0  0
    5.6962    2.0000    0.0000 N   0  0  0  0  0  0  0  0  0  0  0  0
    3.9641    2.0000    0.0000 N   0  0  0  0  0  0  0  0  0  0  0  0
    3.0981    3.5000    0.0000 N   0  0  0  0  0  0  0  0  0  0  0  0
    5.6962    6.0000    0.0000 O   0  0  0  0  0  0  0  0  0  0  0  0
    7.4282    5.0000    0.0000 O   0  0  0  0  0  0  0  0  0  0  0  0
  1  3  1  0
  2  4  1  0
  3 23  1  0
  4 24  1  0
  5  6  2  0
  5  7  1  0
  6 12  1  0
  7 13  2  0
  8 12  2  0
  8 13  1  0
  9 14  2  0
  9 16  1  0
 10 15  2  0
 10 17  1  0
 11 20  2  0
 11 21  1  0
 12 19  1  0
 13 22  1  0
 14 15  1  0
 14 18  1  0
 15 20  1  0
 16 17  2  0
 16 23  1  0
 17 24  1  0
 18 21  2  0
 18 22  1  0
M  END
>  <ACTIVITY>  (87) 
0.00603

$$$$

     RDKit          2D

 22 24  0  0  0  0  0  0  0  0999 V2000
    3.6292   -3.5500    0.0000 C   0  0  0  0  0  0  0  0  0  0  0  0
    3.1042   -3.2542    0.0000 N   0  0  0  0  0  0  0  0  0  0  0  0
    4.6667   -3.5500    0.0000 C   0  0  0  0  0  0  0  0  0  0  0  0
    5.1875   -3.2417    0.0000 C   0  0  0  0  0  0  0  0  0  0  0  0
    4.1417   -3.2500    0.0000 C   0  0  0  0  0  0  0  0  0  0  0  0
    3.6292   -4.1542    0.0000 C   0  0  0  0  0  0  0  0  0  0  0  0
    4.6667   -4.1542    0.0000 C   0  0  0  0  0  0  0  0  0  0  0  0
    5.7167   -3.5417    0.0000 N   0  0  0  0  0  0  0  0  0  0  0  0
    4.1417   -4.4542    0.0000 C   0  0  0  0  0  0  0  0  0  0  0  0
    5.1792   -2.6375    0.0000 N   0  0  0  0  0  0  0  0  0  0  0  0
    5.1917   -4.4542    0.0000 N   0  0  0  0  0  0  0  0  0  0  0  0
    3.1125   -2.6542    0.0000 O   0  0  0  0  0  0  0  0  0  0  0  0
    5.7167   -4.1500    0.0000 C   0  0  0  0  0  0  0  0  0  0  0  0
    2.5917   -3.5542    0.0000 O   0  0  0  0  0  0  0  0  0  0  0  0
    5.6917   -2.3292    0.0000 C   0  0  0  0  0  0  0  0  0  0  0  0
    6.2167   -2.6292    0.0000 C   0  0  0  0  0  0  0  0  0  0  0  0
    3.1042   -4.4417    0.0000 Cl  0  0  0  0  0  0  0  0  0  0  0  0
    6.7375   -2.3167    0.0000 C   0  0  0  0  0  0  0  0  0  0  0  0
    7.2542   -2.6167    0.0000 Br  0  0  0  0  0  0  0  0  0  0  0  0
    6.2042   -1.4292    0.0000 C   0  0  0  0  0  0  0  0  0  0  0  0
    5.6875   -1.7292    0.0000 C   0  0  0  0  0  0  0  0  0  0  0  0
    6.7292   -1.7167    0.0000 C   0  0  0  0  0  0  0  0  0  0  0  0
  2  1  1  0
  3  5  1  0
  4  3  2  0
  5  1  2  0
  6  1  1  0
  7  9  1  0
  8  4  1  0
  9  6  2  0
 10  4  1  0
 11  7  2  0
 12  2  1  0
 13 11  1  0
 14  2  2  0
 15 10  1  0
 16 15  2  0
 17  6  1  0
 18 16  1  0
 19 18  1  0
 20 21  2  0
 21 15  1  0
 22 20  1  0
  3  7  1  0
 13  8  2  0
 18 22  2  0
M  CHG  2   2   1  12  -1
M  END
>  <ACTIVITY>  (88) 
25.12

$$$$

     RDKit          2D

 23 25  0  0  0  0  0  0  0  0999 V2000
   -2.5625   -0.2500    0.0000 C   0  0  0  0  0  0  0  0  0  0  0  0
   -3.0833    0.0458    0.0000 N   0  0  0  0  0  0  0  0  0  0  0  0
   -1.5250   -0.2500    0.0000 C   0  0  0  0  0  0  0  0  0  0  0  0
   -1.0083    0.0583    0.0000 C   0  0  0  0  0  0  0  0  0  0  0  0
   -2.0458    0.0500    0.0000 C   0  0  0  0  0  0  0  0  0  0  0  0
   -2.5625   -0.8542    0.0000 C   0  0  0  0  0  0  0  0  0  0  0  0
   -1.5250   -0.8542    0.0000 C   0  0  0  0  0  0  0  0  0  0  0  0
   -0.4750   -0.2417    0.0000 N   0  0  0  0  0  0  0  0  0  0  0  0
   -2.0458   -1.1542    0.0000 C   0  0  0  0  0  0  0  0  0  0  0  0
   -1.0125    0.6625    0.0000 N   0  0  0  0  0  0  0  0  0  0  0  0
   -1.0000   -1.1542    0.0000 N   0  0  0  0  0  0  0  0  0  0  0  0
   -3.0833    0.6458    0.0000 O   0  0  0  0  0  0  0  0  0  0  0  0
   -0.4750   -0.8500    0.0000 C   0  0  0  0  0  0  0  0  0  0  0  0
   -3.6000   -0.2542    0.0000 O   0  0  0  0  0  0  0  0  0  0  0  0
   -0.4958    0.9708    0.0000 C   0  0  0  0  0  0  0  0  0  0  0  0
    0.0292    0.6708    0.0000 C   0  0  0  0  0  0  0  0  0  0  0  0
    0.5417    0.9833    0.0000 C   0  0  0  0  0  0  0  0  0  0  0  0
   -3.0875   -1.1500    0.0000 O   0  0  0  0  0  0  0  0  0  0  0  0
    1.0667    0.6833    0.0000 Br  0  0  0  0  0  0  0  0  0  0  0  0
    0.0125    1.8708    0.0000 C   0  0  0  0  0  0  0  0  0  0  0  0
   -0.5083    1.5708    0.0000 C   0  0  0  0  0  0  0  0  0  0  0  0
    0.5375    1.5833    0.0000 C   0  0  0  0  0  0  0  0  0  0  0  0
   -3.6083   -0.8500    0.0000 C   0  0  0  0  0  0  0  0  0  0  0  0
  2  1  1  0
  3  5  1  0
  4  3  2  0
  5  1  2  0
  6  1  1  0
  7  9  1  0
  8  4  1  0
  9  6  2  0
 10  4  1  0
 11  7  2  0
 12  2  1  0
 13 11  1  0
 14  2  2  0
 15 10  1  0
 16 15  2  0
 17 16  1  0
 18  6  1  0
 19 17  1  0
 20 21  2  0
 21 15  1  0
 22 20  1  0
 23 18  1  0
  3  7  1  0
 13  8  2  0
 17 22  2  0
M  CHG  2   2   1  12  -1
M  END
>  <ACTIVITY>  (89) 
15.14

$$$$

     RDKit          2D

 23 25  0  0  0  0  0  0  0  0999 V2000
   -0.1750   -1.0542    0.0000 C   0  0  0  0  0  0  0  0  0  0  0  0
   -0.7000   -0.7542    0.0000 N   0  0  0  0  0  0  0  0  0  0  0  0
    0.8667   -1.0292    0.0000 C   0  0  0  0  0  0  0  0  0  0  0  0
    1.3792   -0.7292    0.0000 C   0  0  0  0  0  0  0  0  0  0  0  0
    0.3417   -0.7417    0.0000 C   0  0  0  0  0  0  0  0  0  0  0  0
   -0.1625   -1.6542    0.0000 C   0  0  0  0  0  0  0  0  0  0  0  0
    0.8750   -1.6292    0.0000 C   0  0  0  0  0  0  0  0  0  0  0  0
    1.9000   -1.0167    0.0000 N   0  0  0  0  0  0  0  0  0  0  0  0
    0.3625   -1.9417    0.0000 C   0  0  0  0  0  0  0  0  0  0  0  0
    1.3750   -0.1292    0.0000 N   0  0  0  0  0  0  0  0  0  0  0  0
    1.3917   -1.9250    0.0000 N   0  0  0  0  0  0  0  0  0  0  0  0
   -0.7125   -0.1542    0.0000 O   0  0  0  0  0  0  0  0  0  0  0  0
    1.9125   -1.6167    0.0000 C   0  0  0  0  0  0  0  0  0  0  0  0
   -1.2208   -1.0667    0.0000 O   0  0  0  0  0  0  0  0  0  0  0  0
    1.8917    0.1750    0.0000 C   0  0  0  0  0  0  0  0  0  0  0  0
    2.4125   -0.1167    0.0000 C   0  0  0  0  0  0  0  0  0  0  0  0
   -0.6750   -1.9667    0.0000 N   0  0  0  0  0  0  0  0  0  0  0  0
    2.9292    0.1833    0.0000 C   0  0  0  0  0  0  0  0  0  0  0  0
    3.4417   -0.1167    0.0000 Br  0  0  0  0  0  0  0  0  0  0  0  0
    2.4000    1.0833    0.0000 C   0  0  0  0  0  0  0  0  0  0  0  0
    1.8792    0.7750    0.0000 C   0  0  0  0  0  0  0  0  0  0  0  0
    2.9250    0.7833    0.0000 C   0  0  0  0  0  0  0  0  0  0  0  0
   -0.6625   -2.5667    0.0000 C   0  0  0  0  0  0  0  0  0  0  0  0
  2  1  1  0
  3  5  1  0
  4  3  2  0
  5  1  2  0
  6  1  1  0
  7  9  1  0
  8  4  1  0
  9  6  2  0
 10  4  1  0
 11  7  2  0
 12  2  1  0
 13 11  1  0
 14  2  2  0
 15 10  1  0
 16 15  2  0
 17  6  1  0
 18 16  1  0
 19 18  1  0
 20 21  2  0
 21 15  1  0
 22 20  1  0
 23 17  1  0
  3  7  1  0
  8 13  2  0
 18 22  2  0
M  CHG  2   2   1  12  -1
M  END
>  <ACTIVITY>  (90) 
69.18

$$$$

     RDKit          2D

 20 22  0  0  0  0  0  0  0  0999 V2000
   -2.2375   -1.2542    0.0000 C   0  0  0  0  0  0  0  0  0  0  0  0
   -1.7208   -0.9417    0.0000 C   0  0  0  0  0  0  0  0  0  0  0  0
   -2.2375   -1.8542    0.0000 C   0  0  0  0  0  0  0  0  0  0  0  0
   -2.7583   -0.9542    0.0000 C   0  0  0  0  0  0  0  0  0  0  0  0
   -1.1875   -1.2417    0.0000 N   0  0  0  0  0  0  0  0  0  0  0  0
   -2.7583   -2.1542    0.0000 C   0  0  0  0  0  0  0  0  0  0  0  0
   -1.7250   -0.3417    0.0000 N   0  0  0  0  0  0  0  0  0  0  0  0
   -3.2750   -1.2542    0.0000 C   0  0  0  0  0  0  0  0  0  0  0  0
   -3.2750   -1.8542    0.0000 C   0  0  0  0  0  0  0  0  0  0  0  0
   -1.7125   -2.1542    0.0000 N   0  0  0  0  0  0  0  0  0  0  0  0
   -1.1875   -1.8542    0.0000 C   0  0  0  0  0  0  0  0  0  0  0  0
   -1.2083   -0.0292    0.0000 C   0  0  0  0  0  0  0  0  0  0  0  0
   -0.6833   -0.3292    0.0000 C   0  0  0  0  0  0  0  0  0  0  0  0
   -3.7958   -0.9542    0.0000 N   0  0  0  0  0  0  0  0  0  0  0  0
   -3.8000   -2.1542    0.0000 Cl  0  0  0  0  0  0  0  0  0  0  0  0
   -0.1708   -0.0250    0.0000 C   0  0  0  0  0  0  0  0  0  0  0  0
    0.3542   -0.3167    0.0000 Br  0  0  0  0  0  0  0  0  0  0  0  0
   -0.7000    0.8708    0.0000 C   0  0  0  0  0  0  0  0  0  0  0  0
   -1.2208    0.5625    0.0000 C   0  0  0  0  0  0  0  0  0  0  0  0
   -0.1750    0.5750    0.0000 C   0  0  0  0  0  0  0  0  0  0  0  0
  2  1  1  0
  3  1  1  0
  4  1  2  0
  5  2  2  0
  6  3  2  0
  7  2  1  0
  8  4  1  0
  9  8  2  0
 10  3  1  0
 11 10  2  0
 12  7  1  0
 13 12  2  0
 14  8  1  0
 15  9  1  0
 16 13  1  0
 17 16  1  0
 18 19  2  0
 19 12  1  0
 20 18  1  0
  9  6  1  0
  5 11  1  0
 16 20  2  0
M  END
>  <ACTIVITY>  (91) 
6.61

$$$$

     RDKit          2D

 21 23  0  0  0  0  0  0  0  0999 V2000
    0.8667   -1.0292    0.0000 C   0  0  0  0  0  0  0  0  0  0  0  0
    1.3792   -0.7292    0.0000 C   0  0  0  0  0  0  0  0  0  0  0  0
    0.8750   -1.6292    0.0000 C   0  0  0  0  0  0  0  0  0  0  0  0
    0.3417   -0.7417    0.0000 C   0  0  0  0  0  0  0  0  0  0  0  0
    1.9000   -1.0167    0.0000 N   0  0  0  0  0  0  0  0  0  0  0  0
    0.3625   -1.9417    0.0000 C   0  0  0  0  0  0  0  0  0  0  0  0
    1.3750   -0.1292    0.0000 N   0  0  0  0  0  0  0  0  0  0  0  0
   -0.1750   -1.0542    0.0000 C   0  0  0  0  0  0  0  0  0  0  0  0
   -0.1625   -1.6542    0.0000 C   0  0  0  0  0  0  0  0  0  0  0  0
    1.3917   -1.9250    0.0000 N   0  0  0  0  0  0  0  0  0  0  0  0
    1.9125   -1.6167    0.0000 C   0  0  0  0  0  0  0  0  0  0  0  0
    1.8917    0.1750    0.0000 C   0  0  0  0  0  0  0  0  0  0  0  0
    2.4125   -0.1167    0.0000 C   0  0  0  0  0  0  0  0  0  0  0  0
   -0.7000   -0.7542    0.0000 N   0  0  0  0  0  0  0  0  0  0  0  0
    2.9292    0.1833    0.0000 C   0  0  0  0  0  0  0  0  0  0  0  0
   -0.6750   -1.9667    0.0000 O   0  0  0  0  0  0  0  0  0  0  0  0
    3.4417   -0.1167    0.0000 Br  0  0  0  0  0  0  0  0  0  0  0  0
    2.4000    1.0833    0.0000 C   0  0  0  0  0  0  0  0  0  0  0  0
    1.8792    0.7750    0.0000 C   0  0  0  0  0  0  0  0  0  0  0  0
    2.9250    0.7833    0.0000 C   0  0  0  0  0  0  0  0  0  0  0  0
   -0.6625   -2.5667    0.0000 C   0  0  0  0  0  0  0  0  0  0  0  0
  2  1  1  0
  3  1  1  0
  4  1  2  0
  5  2  2  0
  6  3  2  0
  7  2  1  0
  8  4  1  0
  9  8  2  0
 10  3  1  0
 11 10  2  0
 12  7  1  0
 13 12  2  0
 14  8  1  0
 15 13  1  0
 16  9  1  0
 17 15  1  0
 18 19  2  0
 19 12  1  0
 20 18  1  0
 21 16  1  0
  6  9  1  0
  5 11  1  0
 15 20  2  0
M  END
>  <ACTIVITY>  (92) 
3.8

$$$$

     RDKit          2D

 22 24  0  0  0  0  0  0  0  0999 V2000
    0.8667   -1.0292    0.0000 C   0  0  0  0  0  0  0  0  0  0  0  0
    1.3792   -0.7292    0.0000 C   0  0  0  0  0  0  0  0  0  0  0  0
    0.3625   -1.9417    0.0000 C   0  0  0  0  0  0  0  0  0  0  0  0
   -0.1625   -1.6542    0.0000 C   0  0  0  0  0  0  0  0  0  0  0  0
    0.8750   -1.6292    0.0000 C   0  0  0  0  0  0  0  0  0  0  0  0
    0.3417   -0.7417    0.0000 C   0  0  0  0  0  0  0  0  0  0  0  0
   -0.1750   -1.0542    0.0000 C   0  0  0  0  0  0  0  0  0  0  0  0
    1.9000   -1.0167    0.0000 N   0  0  0  0  0  0  0  0  0  0  0  0
    1.3750   -0.1292    0.0000 N   0  0  0  0  0  0  0  0  0  0  0  0
    1.3917   -1.9250    0.0000 N   0  0  0  0  0  0  0  0  0  0  0  0
    1.9125   -1.6167    0.0000 C   0  0  0  0  0  0  0  0  0  0  0  0
   -0.6750   -1.9667    0.0000 N   0  0  0  0  0  0  0  0  0  0  0  0
    1.8917    0.1750    0.0000 C   0  0  0  0  0  0  0  0  0  0  0  0
    2.4125   -0.1167    0.0000 C   0  0  0  0  0  0  0  0  0  0  0  0
   -0.7000   -0.7542    0.0000 N   0  0  0  0  0  0  0  0  0  0  0  0
    2.9292    0.1833    0.0000 C   0  0  0  0  0  0  0  0  0  0  0  0
    3.4417   -0.1167    0.0000 Br  0  0  0  0  0  0  0  0  0  0  0  0
    2.4000    1.0833    0.0000 C   0  0  0  0  0  0  0  0  0  0  0  0
    1.8792    0.7750    0.0000 C   0  0  0  0  0  0  0  0  0  0  0  0
   -1.2000   -1.6792    0.0000 C   0  0  0  0  0  0  0  0  0  0  0  0
   -0.6625   -2.5667    0.0000 C   0  0  0  0  0  0  0  0  0  0  0  0
    2.9250    0.7833    0.0000 C   0  0  0  0  0  0  0  0  0  0  0  0
  2  1  1  0
  3  5  2  0
  4  7  2  0
  5  1  1  0
  6  1  2  0
  7  6  1  0
  8  2  2  0
  9  2  1  0
 10  5  1  0
 11 10  2  0
 12  4  1  0
 13  9  1  0
 14 13  2  0
 15  7  1  0
 16 14  1  0
 17 16  1  0
 18 19  2  0
 19 13  1  0
 20 12  1  0
 21 12  1  0
 22 18  1  0
  3  4  1  0
  8 11  1  0
 16 22  2  0
M  END
>  <ACTIVITY>  (93) 
162.18

$$$$

     RDKit          2D

 21 23  0  0  0  0  0  0  0  0999 V2000
    0.8667   -1.0292    0.0000 C   0  0  0  0  0  0  0  0  0  0  0  0
    1.3792   -0.7292    0.0000 C   0  0  0  0  0  0  0  0  0  0  0  0
    0.8750   -1.6292    0.0000 C   0  0  0  0  0  0  0  0  0  0  0  0
    0.3417   -0.7417    0.0000 C   0  0  0  0  0  0  0  0  0  0  0  0
    1.9000   -1.0167    0.0000 N   0  0  0  0  0  0  0  0  0  0  0  0
    0.3625   -1.9417    0.0000 C   0  0  0  0  0  0  0  0  0  0  0  0
    1.3750   -0.1292    0.0000 N   0  0  0  0  0  0  0  0  0  0  0  0
   -0.1750   -1.0542    0.0000 C   0  0  0  0  0  0  0  0  0  0  0  0
   -0.1625   -1.6542    0.0000 C   0  0  0  0  0  0  0  0  0  0  0  0
    1.3917   -1.9250    0.0000 N   0  0  0  0  0  0  0  0  0  0  0  0
    1.9125   -1.6167    0.0000 C   0  0  0  0  0  0  0  0  0  0  0  0
    1.8917    0.1750    0.0000 C   0  0  0  0  0  0  0  0  0  0  0  0
    2.4125   -0.1167    0.0000 C   0  0  0  0  0  0  0  0  0  0  0  0
   -0.6750   -1.9667    0.0000 N   0  0  0  0  0  0  0  0  0  0  0  0
   -0.7000   -0.7542    0.0000 N   0  0  0  0  0  0  0  0  0  0  0  0
    2.9292    0.1833    0.0000 C   0  0  0  0  0  0  0  0  0  0  0  0
    3.4417   -0.1167    0.0000 Br  0  0  0  0  0  0  0  0  0  0  0  0
    2.4000    1.0833    0.0000 C   0  0  0  0  0  0  0  0  0  0  0  0
    1.8792    0.7750    0.0000 C   0  0  0  0  0  0  0  0  0  0  0  0
    2.9250    0.7833    0.0000 C   0  0  0  0  0  0  0  0  0  0  0  0
   -0.6625   -2.5667    0.0000 C   0  0  0  0  0  0  0  0  0  0  0  0
  2  1  1  0
  3  1  1  0
  4  1  2  0
  5  2  2  0
  6  3  2  0
  7  2  1  0
  8  4  1  0
  9  8  2  0
 10  3  1  0
 11 10  2  0
 12  7  1  0
 13 12  2  0
 14  9  1  0
 15  8  1  0
 16 13  1  0
 17 16  1  0
 18 19  2  0
 19 12  1  0
 20 18  1  0
 21 14  1  0
  6  9  1  0
  5 11  1  0
 16 20  2  0
M  END
>  <ACTIVITY>  (94) 
0.692

$$$$

     RDKit          2D

 21 23  0  0  0  0  0  0  0  0999 V2000
    1.3792   -0.7292    0.0000 C   0  0  0  0  0  0  0  0  0  0  0  0
    0.8667   -1.0292    0.0000 C   0  0  0  0  0  0  0  0  0  0  0  0
    0.8750   -1.6292    0.0000 C   0  0  0  0  0  0  0  0  0  0  0  0
    1.9000   -1.0167    0.0000 N   0  0  0  0  0  0  0  0  0  0  0  0
    0.3625   -1.9417    0.0000 C   0  0  0  0  0  0  0  0  0  0  0  0
    1.3750   -0.1292    0.0000 N   0  0  0  0  0  0  0  0  0  0  0  0
   -0.1625   -1.6542    0.0000 C   0  0  0  0  0  0  0  0  0  0  0  0
    0.3417   -0.7417    0.0000 C   0  0  0  0  0  0  0  0  0  0  0  0
    1.3917   -1.9250    0.0000 N   0  0  0  0  0  0  0  0  0  0  0  0
    1.9125   -1.6167    0.0000 C   0  0  0  0  0  0  0  0  0  0  0  0
   -0.6750   -1.9667    0.0000 N   0  0  0  0  0  0  0  0  0  0  0  0
    1.8917    0.1750    0.0000 C   0  0  0  0  0  0  0  0  0  0  0  0
   -0.1750   -1.0542    0.0000 C   0  0  0  0  0  0  0  0  0  0  0  0
    2.4125   -0.1167    0.0000 C   0  0  0  0  0  0  0  0  0  0  0  0
    2.9292    0.1833    0.0000 C   0  0  0  0  0  0  0  0  0  0  0  0
    3.4417   -0.1167    0.0000 Br  0  0  0  0  0  0  0  0  0  0  0  0
    2.4000    1.0833    0.0000 C   0  0  0  0  0  0  0  0  0  0  0  0
    1.8792    0.7750    0.0000 C   0  0  0  0  0  0  0  0  0  0  0  0
   -0.6625   -2.5667    0.0000 C   0  0  0  0  0  0  0  0  0  0  0  0
   -1.2000   -1.6792    0.0000 C   0  0  0  0  0  0  0  0  0  0  0  0
    2.9250    0.7833    0.0000 C   0  0  0  0  0  0  0  0  0  0  0  0
  2  1  1  0
  3  2  2  0
  4  1  2  0
  5  3  1  0
  6  1  1  0
  7 13  1  0
  8  2  1  0
  9 10  2  0
 10  4  1  0
 11  7  1  0
 12  6  1  0
 13  8  2  0
 14 12  2  0
 15 14  1  0
 16 15  1  0
 17 18  2  0
 18 12  1  0
 19 11  1  0
 20 11  1  0
 21 17  1  0
  3  9  1  0
  5  7  2  0
 15 21  2  0
M  END
>  <ACTIVITY>  (95) 
11.22

$$$$

     RDKit          2D

 21 23  0  0  0  0  0  0  0  0999 V2000
    1.3792   -0.7292    0.0000 C   0  0  0  0  0  0  0  0  0  0  0  0
    0.8667   -1.0292    0.0000 C   0  0  0  0  0  0  0  0  0  0  0  0
    0.8750   -1.6292    0.0000 C   0  0  0  0  0  0  0  0  0  0  0  0
    1.9000   -1.0167    0.0000 N   0  0  0  0  0  0  0  0  0  0  0  0
    1.3750   -0.1292    0.0000 N   0  0  0  0  0  0  0  0  0  0  0  0
    1.3917   -1.9250    0.0000 N   0  0  0  0  0  0  0  0  0  0  0  0
    0.3417   -0.7417    0.0000 C   0  0  0  0  0  0  0  0  0  0  0  0
    0.3625   -1.9417    0.0000 C   0  0  0  0  0  0  0  0  0  0  0  0
    1.9125   -1.6167    0.0000 C   0  0  0  0  0  0  0  0  0  0  0  0
    1.8917    0.1750    0.0000 C   0  0  0  0  0  0  0  0  0  0  0  0
    2.4125   -0.1167    0.0000 C   0  0  0  0  0  0  0  0  0  0  0  0
   -0.1625   -1.6542    0.0000 C   0  0  0  0  0  0  0  0  0  0  0  0
   -0.1750   -1.0542    0.0000 C   0  0  0  0  0  0  0  0  0  0  0  0
    2.9292    0.1833    0.0000 C   0  0  0  0  0  0  0  0  0  0  0  0
   -0.6750   -1.9667    0.0000 N   0  0  0  0  0  0  0  0  0  0  0  0
    3.4417   -0.1167    0.0000 Br  0  0  0  0  0  0  0  0  0  0  0  0
    2.4000    1.0833    0.0000 C   0  0  0  0  0  0  0  0  0  0  0  0
    1.8792    0.7750    0.0000 C   0  0  0  0  0  0  0  0  0  0  0  0
    2.9250    0.7833    0.0000 C   0  0  0  0  0  0  0  0  0  0  0  0
   -1.2000   -1.6792    0.0000 C   0  0  0  0  0  0  0  0  0  0  0  0
   -1.2125   -1.0792    0.0000 C   0  0  0  0  0  0  0  0  0  0  0  0
  2  1  1  0
  3  2  2  0
  4  1  2  0
  5  1  1  0
  6  9  2  0
  7  2  1  0
  8  3  1  0
  9  4  1  0
 10  5  1  0
 11 10  2  0
 12 13  1  0
 13  7  2  0
 14 11  1  0
 15 12  1  0
 16 14  1  0
 17 18  2  0
 18 10  1  0
 19 17  1  0
 20 15  1  0
 21 20  1  0
  3  6  1  0
  8 12  2  0
 14 19  2  0
M  END
>  <ACTIVITY>  (96) 
12.02

$$$$

     RDKit          2D

 20 22  0  0  0  0  0  0  0  0999 V2000
    1.3792   -0.7292    0.0000 C   0  0  0  0  0  0  0  0  0  0  0  0
    0.8667   -1.0292    0.0000 C   0  0  0  0  0  0  0  0  0  0  0  0
    0.8750   -1.6292    0.0000 C   0  0  0  0  0  0  0  0  0  0  0  0
    1.9000   -1.0167    0.0000 N   0  0  0  0  0  0  0  0  0  0  0  0
    1.3750   -0.1292    0.0000 N   0  0  0  0  0  0  0  0  0  0  0  0
    1.3917   -1.9250    0.0000 N   0  0  0  0  0  0  0  0  0  0  0  0
    0.3417   -0.7417    0.0000 C   0  0  0  0  0  0  0  0  0  0  0  0
    0.3625   -1.9417    0.0000 C   0  0  0  0  0  0  0  0  0  0  0  0
    1.9125   -1.6167    0.0000 C   0  0  0  0  0  0  0  0  0  0  0  0
    1.8917    0.1750    0.0000 C   0  0  0  0  0  0  0  0  0  0  0  0
    2.4125   -0.1167    0.0000 C   0  0  0  0  0  0  0  0  0  0  0  0
   -0.1625   -1.6542    0.0000 C   0  0  0  0  0  0  0  0  0  0  0  0
   -0.1750   -1.0542    0.0000 C   0  0  0  0  0  0  0  0  0  0  0  0
    2.9292    0.1833    0.0000 C   0  0  0  0  0  0  0  0  0  0  0  0
   -0.6750   -1.9667    0.0000 N   0  0  0  0  0  0  0  0  0  0  0  0
    3.4417   -0.1167    0.0000 Br  0  0  0  0  0  0  0  0  0  0  0  0
    2.4000    1.0833    0.0000 C   0  0  0  0  0  0  0  0  0  0  0  0
    1.8792    0.7750    0.0000 C   0  0  0  0  0  0  0  0  0  0  0  0
    2.9250    0.7833    0.0000 C   0  0  0  0  0  0  0  0  0  0  0  0
   -1.2000   -1.6792    0.0000 C   0  0  0  0  0  0  0  0  0  0  0  0
  2  1  1  0
  3  2  2  0
  4  1  2  0
  5  1  1  0
  6  9  2  0
  7  2  1  0
  8  3  1  0
  9  4  1  0
 10  5  1  0
 11 10  2  0
 12 13  1  0
 13  7  2  0
 14 11  1  0
 15 12  1  0
 16 14  1  0
 17 18  2  0
 18 10  1  0
 19 17  1  0
 20 15  1  0
  3  6  1  0
  8 12  2  0
 14 19  2  0
M  END
>  <ACTIVITY>  (97) 
7.08

$$$$

     RDKit          2D

 22 24  0  0  0  0  0  0  0  0999 V2000
    1.3792   -0.7292    0.0000 C   0  0  0  0  0  0  0  0  0  0  0  0
    0.8667   -1.0292    0.0000 C   0  0  0  0  0  0  0  0  0  0  0  0
    0.8750   -1.6292    0.0000 C   0  0  0  0  0  0  0  0  0  0  0  0
    1.9000   -1.0167    0.0000 N   0  0  0  0  0  0  0  0  0  0  0  0
    1.3750   -0.1292    0.0000 N   0  0  0  0  0  0  0  0  0  0  0  0
    0.3625   -1.9417    0.0000 C   0  0  0  0  0  0  0  0  0  0  0  0
    1.3917   -1.9250    0.0000 N   0  0  0  0  0  0  0  0  0  0  0  0
    0.3417   -0.7417    0.0000 C   0  0  0  0  0  0  0  0  0  0  0  0
   -1.2000   -1.6792    0.0000 C   0  0  0  0  0  0  0  0  0  0  0  0
    1.9125   -1.6167    0.0000 C   0  0  0  0  0  0  0  0  0  0  0  0
   -0.6750   -1.9667    0.0000 N   0  0  0  0  0  0  0  0  0  0  0  0
   -0.1625   -1.6542    0.0000 C   0  0  0  0  0  0  0  0  0  0  0  0
    1.8917    0.1750    0.0000 C   0  0  0  0  0  0  0  0  0  0  0  0
    2.4125   -0.1167    0.0000 C   0  0  0  0  0  0  0  0  0  0  0  0
   -1.2125   -1.0792    0.0000 O   0  0  0  0  0  0  0  0  0  0  0  0
   -0.1750   -1.0542    0.0000 C   0  0  0  0  0  0  0  0  0  0  0  0
    2.9292    0.1833    0.0000 C   0  0  0  0  0  0  0  0  0  0  0  0
    3.4417   -0.1167    0.0000 Br  0  0  0  0  0  0  0  0  0  0  0  0
    2.4000    1.0833    0.0000 C   0  0  0  0  0  0  0  0  0  0  0  0
   -1.7208   -1.9875    0.0000 C   0  0  0  0  0  0  0  0  0  0  0  0
    1.8792    0.7750    0.0000 C   0  0  0  0  0  0  0  0  0  0  0  0
    2.9250    0.7833    0.0000 C   0  0  0  0  0  0  0  0  0  0  0  0
  2  1  1  0
  3  2  2  0
  4  1  2  0
  5  1  1  0
  6  3  1  0
  7 10  2  0
  8  2  1  0
  9 11  1  0
 10  4  1  0
 11 12  1  0
 12 16  1  0
 13  5  1  0
 14 13  2  0
 15  9  2  0
 16  8  2  0
 17 14  1  0
 18 17  1  0
 19 21  2  0
 20  9  1  0
 21 13  1  0
 22 19  1  0
  3  7  1  0
  6 12  2  0
 17 22  2  0
M  END
>  <ACTIVITY>  (98) 
40.74

$$$$

     RDKit          2D

 19 21  0  0  0  0  0  0  0  0999 V2000
    1.3792   -0.7292    0.0000 C   0  0  0  0  0  0  0  0  0  0  0  0
    0.8667   -1.0292    0.0000 C   0  0  0  0  0  0  0  0  0  0  0  0
    0.8750   -1.6292    0.0000 C   0  0  0  0  0  0  0  0  0  0  0  0
    1.9000   -1.0167    0.0000 N   0  0  0  0  0  0  0  0  0  0  0  0
    1.3750   -0.1292    0.0000 N   0  0  0  0  0  0  0  0  0  0  0  0
    1.3917   -1.9250    0.0000 N   0  0  0  0  0  0  0  0  0  0  0  0
    0.3417   -0.7417    0.0000 C   0  0  0  0  0  0  0  0  0  0  0  0
    0.3625   -1.9417    0.0000 C   0  0  0  0  0  0  0  0  0  0  0  0
    1.9125   -1.6167    0.0000 C   0  0  0  0  0  0  0  0  0  0  0  0
    1.8917    0.1750    0.0000 C   0  0  0  0  0  0  0  0  0  0  0  0
    2.4125   -0.1167    0.0000 C   0  0  0  0  0  0  0  0  0  0  0  0
   -0.1625   -1.6542    0.0000 C   0  0  0  0  0  0  0  0  0  0  0  0
   -0.1750   -1.0542    0.0000 C   0  0  0  0  0  0  0  0  0  0  0  0
    2.9292    0.1833    0.0000 C   0  0  0  0  0  0  0  0  0  0  0  0
    3.4417   -0.1167    0.0000 Br  0  0  0  0  0  0  0  0  0  0  0  0
   -0.6750   -1.9667    0.0000 O   0  0  0  0  0  0  0  0  0  0  0  0
    2.4000    1.0833    0.0000 C   0  0  0  0  0  0  0  0  0  0  0  0
    1.8792    0.7750    0.0000 C   0  0  0  0  0  0  0  0  0  0  0  0
    2.9250    0.7833    0.0000 C   0  0  0  0  0  0  0  0  0  0  0  0
  2  1  1  0
  3  2  2  0
  4  1  2  0
  5  1  1  0
  6  9  2  0
  7  2  1  0
  8  3  1  0
  9  4  1  0
 10  5  1  0
 11 10  2  0
 12 13  1  0
 13  7  2  0
 14 11  1  0
 15 14  1  0
 16 12  1  0
 17 18  2  0
 18 10  1  0
 19 17  1  0
  3  6  1  0
  8 12  2  0
 14 19  2  0
M  END
>  <ACTIVITY>  (99) 
4.79

$$$$

     RDKit          2D

 23 25  0  0  0  0  0  0  0  0999 V2000
    1.3792   -0.7292    0.0000 C   0  0  0  0  0  0  0  0  0  0  0  0
    0.8667   -1.0292    0.0000 C   0  0  0  0  0  0  0  0  0  0  0  0
    1.9000   -1.0167    0.0000 N   0  0  0  0  0  0  0  0  0  0  0  0
   -1.2208   -1.0667    0.0000 C   0  0  0  0  0  0  0  0  0  0  0  0
    1.3750   -0.1292    0.0000 N   0  0  0  0  0  0  0  0  0  0  0  0
   -0.7000   -0.7542    0.0000 N   0  0  0  0  0  0  0  0  0  0  0  0
    0.8750   -1.6292    0.0000 C   0  0  0  0  0  0  0  0  0  0  0  0
    0.3417   -0.7417    0.0000 C   0  0  0  0  0  0  0  0  0  0  0  0
    1.3917   -1.9250    0.0000 N   0  0  0  0  0  0  0  0  0  0  0  0
    1.9125   -1.6167    0.0000 C   0  0  0  0  0  0  0  0  0  0  0  0
   -0.1750   -1.0542    0.0000 C   0  0  0  0  0  0  0  0  0  0  0  0
    1.8917    0.1750    0.0000 C   0  0  0  0  0  0  0  0  0  0  0  0
   -1.7375   -0.7750    0.0000 O   0  0  0  0  0  0  0  0  0  0  0  0
    2.4125   -0.1167    0.0000 C   0  0  0  0  0  0  0  0  0  0  0  0
    0.3625   -1.9417    0.0000 C   0  0  0  0  0  0  0  0  0  0  0  0
    2.9292    0.1833    0.0000 C   0  0  0  0  0  0  0  0  0  0  0  0
   -1.2083   -1.6667    0.0000 O   0  0  0  0  0  0  0  0  0  0  0  0
   -0.1625   -1.6542    0.0000 C   0  0  0  0  0  0  0  0  0  0  0  0
    3.4417   -0.1167    0.0000 Br  0  0  0  0  0  0  0  0  0  0  0  0
    2.4000    1.0833    0.0000 C   0  0  0  0  0  0  0  0  0  0  0  0
    1.8792    0.7750    0.0000 C   0  0  0  0  0  0  0  0  0  0  0  0
    2.9250    0.7833    0.0000 C   0  0  0  0  0  0  0  0  0  0  0  0
   -1.7208   -1.9750    0.0000 C   0  0  0  0  0  0  0  0  0  0  0  0
  2  1  1  0
  3  1  2  0
  4  6  1  0
  5  1  1  0
  6 11  1  0
  7  2  2  0
  8  2  1  0
  9 10  2  0
 10  3  1  0
 11  8  2  0
 12  5  1  0
 13  4  2  0
 14 12  2  0
 15  7  1  0
 16 14  1  0
 17  4  1  0
 18 11  1  0
 19 16  1  0
 20 21  2  0
 21 12  1  0
 22 20  1  0
 23 17  1  0
  7  9  1  0
 18 15  2  0
 16 22  2  0
M  END
>  <ACTIVITY>  (100) 
12.02

$$$$

     RDKit          2D

 21 23  0  0  0  0  0  0  0  0999 V2000
    3.2167   -3.7125    0.0000 C   0  0  0  0  0  0  0  0  0  0  0  0
    3.7417   -3.4042    0.0000 C   0  0  0  0  0  0  0  0  0  0  0  0
    2.7000   -3.4042    0.0000 C   0  0  0  0  0  0  0  0  0  0  0  0
    4.2667   -3.7125    0.0000 N   0  0  0  0  0  0  0  0  0  0  0  0
    3.7375   -2.8042    0.0000 N   0  0  0  0  0  0  0  0  0  0  0  0
    2.1792   -3.7125    0.0000 C   0  0  0  0  0  0  0  0  0  0  0  0
    3.2167   -4.3167    0.0000 C   0  0  0  0  0  0  0  0  0  0  0  0
    3.7417   -4.6167    0.0000 N   0  0  0  0  0  0  0  0  0  0  0  0
    4.2667   -4.3167    0.0000 C   0  0  0  0  0  0  0  0  0  0  0  0
    1.6542   -3.4042    0.0000 N   0  0  0  0  0  0  0  0  0  0  0  0
    4.2542   -2.5042    0.0000 C   0  0  0  0  0  0  0  0  0  0  0  0
    4.7792   -2.8000    0.0000 C   0  0  0  0  0  0  0  0  0  0  0  0
    2.1792   -4.3167    0.0000 C   0  0  0  0  0  0  0  0  0  0  0  0
    2.7000   -4.6167    0.0000 C   0  0  0  0  0  0  0  0  0  0  0  0
    5.3042   -2.5000    0.0000 C   0  0  0  0  0  0  0  0  0  0  0  0
    5.8292   -2.8000    0.0000 Br  0  0  0  0  0  0  0  0  0  0  0  0
    4.7750   -1.5917    0.0000 C   0  0  0  0  0  0  0  0  0  0  0  0
    4.2542   -1.9000    0.0000 C   0  0  0  0  0  0  0  0  0  0  0  0
    1.6542   -2.8042    0.0000 C   0  0  0  0  0  0  0  0  0  0  0  0
    1.1292   -3.7125    0.0000 C   0  0  0  0  0  0  0  0  0  0  0  0
    5.3042   -1.8917    0.0000 C   0  0  0  0  0  0  0  0  0  0  0  0
  2  1  1  0
  3  1  2  0
  4  2  2  0
  5  2  1  0
  6  3  1  0
  7  1  1  0
  8  7  1  0
  9  8  2  0
 10  6  1  0
 11  5  1  0
 12 11  2  0
 13 14  1  0
 14  7  2  0
 15 12  1  0
 16 15  1  0
 17 18  2  0
 18 11  1  0
 19 10  1  0
 20 10  1  0
 21 17  1  0
 13  6  2  0
  9  4  1  0
 21 15  2  0
M  END
>  <ACTIVITY>  (101) 
85.11

$$$$

     RDKit          2D

 20 22  0  0  0  0  0  0  0  0999 V2000
    3.7417   -3.4042    0.0000 C   0  0  0  0  0  0  0  0  0  0  0  0
    3.2167   -3.7125    0.0000 C   0  0  0  0  0  0  0  0  0  0  0  0
    4.2667   -3.7125    0.0000 N   0  0  0  0  0  0  0  0  0  0  0  0
    3.7375   -2.8042    0.0000 N   0  0  0  0  0  0  0  0  0  0  0  0
    3.2167   -4.3167    0.0000 C   0  0  0  0  0  0  0  0  0  0  0  0
    3.7417   -4.6167    0.0000 N   0  0  0  0  0  0  0  0  0  0  0  0
    4.2667   -4.3167    0.0000 C   0  0  0  0  0  0  0  0  0  0  0  0
    2.7000   -3.4042    0.0000 C   0  0  0  0  0  0  0  0  0  0  0  0
    4.2542   -2.5042    0.0000 C   0  0  0  0  0  0  0  0  0  0  0  0
    4.7792   -2.8000    0.0000 C   0  0  0  0  0  0  0  0  0  0  0  0
    2.7000   -4.6167    0.0000 C   0  0  0  0  0  0  0  0  0  0  0  0
    2.1792   -3.7125    0.0000 C   0  0  0  0  0  0  0  0  0  0  0  0
    5.3042   -2.5000    0.0000 C   0  0  0  0  0  0  0  0  0  0  0  0
    1.6542   -3.4042    0.0000 N   0  0  0  0  0  0  0  0  0  0  0  0
    2.1792   -4.3167    0.0000 C   0  0  0  0  0  0  0  0  0  0  0  0
    5.8292   -2.8000    0.0000 Br  0  0  0  0  0  0  0  0  0  0  0  0
    4.7750   -1.5917    0.0000 C   0  0  0  0  0  0  0  0  0  0  0  0
    4.2542   -1.9000    0.0000 C   0  0  0  0  0  0  0  0  0  0  0  0
    5.3042   -1.8917    0.0000 C   0  0  0  0  0  0  0  0  0  0  0  0
    1.1292   -3.7125    0.0000 C   0  0  0  0  0  0  0  0  0  0  0  0
  2  1  1  0
  3  1  2  0
  4  1  1  0
  5  2  2  0
  6  7  2  0
  7  3  1  0
  8  2  1  0
  9  4  1  0
 10  9  2  0
 11  5  1  0
 12  8  2  0
 13 10  1  0
 14 12  1  0
 15 12  1  0
 16 13  1  0
 17 18  2  0
 18  9  1  0
 19 17  1  0
 20 14  1  0
  6  5  1  0
 11 15  2  0
 19 13  2  0
M  END
>  <ACTIVITY>  (102) 
4.07

$$$$

     RDKit          2D

 25 27  0  0  0  0  0  0  0  0999 V2000
    0.8667   -1.0292    0.0000 C   0  0  0  0  0  0  0  0  0  0  0  0
    1.3792   -0.7292    0.0000 C   0  0  0  0  0  0  0  0  0  0  0  0
    3.4500   -0.1167    0.0000 C   0  0  0  0  0  0  0  0  0  0  0  0
    0.8750   -1.6292    0.0000 C   0  0  0  0  0  0  0  0  0  0  0  0
    0.3417   -0.7417    0.0000 C   0  0  0  0  0  0  0  0  0  0  0  0
    1.9000   -1.0167    0.0000 N   0  0  0  0  0  0  0  0  0  0  0  0
    0.3625   -1.9417    0.0000 C   0  0  0  0  0  0  0  0  0  0  0  0
    1.3750   -0.1292    0.0000 N   0  0  0  0  0  0  0  0  0  0  0  0
   -0.1750   -1.0542    0.0000 C   0  0  0  0  0  0  0  0  0  0  0  0
   -0.1625   -1.6542    0.0000 C   0  0  0  0  0  0  0  0  0  0  0  0
    2.9292    0.1833    0.0000 C   0  0  0  0  0  0  0  0  0  0  0  0
    1.3917   -1.9250    0.0000 N   0  0  0  0  0  0  0  0  0  0  0  0
    1.9125   -1.6167    0.0000 C   0  0  0  0  0  0  0  0  0  0  0  0
    1.8917    0.1750    0.0000 C   0  0  0  0  0  0  0  0  0  0  0  0
    2.4125   -0.1167    0.0000 C   0  0  0  0  0  0  0  0  0  0  0  0
    3.4542   -0.7167    0.0000 F   0  0  0  0  0  0  0  0  0  0  0  0
    3.9667    0.1833    0.0000 F   0  0  0  0  0  0  0  0  0  0  0  0
    4.0292   -0.2667    0.0000 F   0  0  0  0  0  0  0  0  0  0  0  0
   -0.7000   -0.7542    0.0000 O   0  0  0  0  0  0  0  0  0  0  0  0
   -0.6833   -1.9667    0.0000 O   0  0  0  0  0  0  0  0  0  0  0  0
    2.9250    0.7833    0.0000 C   0  0  0  0  0  0  0  0  0  0  0  0
    2.4000    1.0833    0.0000 C   0  0  0  0  0  0  0  0  0  0  0  0
    1.8792    0.7750    0.0000 C   0  0  0  0  0  0  0  0  0  0  0  0
   -1.2000   -1.6667    0.0000 C   0  0  0  0  0  0  0  0  0  0  0  0
   -1.2208   -1.0667    0.0000 C   0  0  0  0  0  0  0  0  0  0  0  0
  2  1  1  0
  3 11  1  0
  4  1  1  0
  5  1  2  0
  6  2  2  0
  7  4  2  0
  8  2  1  0
  9  5  1  0
 10  9  2  0
 11 15  2  0
 12  4  1  0
 13 12  2  0
 14  8  1  0
 15 14  1  0
 16  3  1  0
 17  3  1  0
 18  3  1  0
 19  9  1  0
 20 10  1  0
 21 22  2  0
 22 23  1  0
 23 14  2  0
 24 20  1  0
 25 19  1  0
 10  7  1  0
  6 13  1  0
 11 21  1  0
M  END
>  <ACTIVITY>  (103) 
0.245

$$$$

     RDKit          2D

 22 24  0  0  0  0  0  0  0  0999 V2000
    6.5622    6.5000    0.0000 C   0  0  0  0  0  0  0  0  0  0  0  0
    8.2942    4.5000    0.0000 C   0  0  0  0  0  0  0  0  0  0  0  0
    0.5000    3.0000    0.0000 C   0  0  0  0  0  0  0  0  0  0  0  0
    0.5000    2.0000    0.0000 C   0  0  0  0  0  0  0  0  0  0  0  0
    1.3660    3.5000    0.0000 C   0  0  0  0  0  0  0  0  0  0  0  0
    2.2321    2.0000    0.0000 C   0  0  0  0  0  0  0  0  0  0  0  0
    4.8301    4.5000    0.0000 C   0  0  0  0  0  0  0  0  0  0  0  0
    6.5622    3.5000    0.0000 C   0  0  0  0  0  0  0  0  0  0  0  0
    4.8301    1.5000    0.0000 C   0  0  0  0  0  0  0  0  0  0  0  0
    1.3660    1.5000    0.0000 C   0  0  0  0  0  0  0  0  0  0  0  0
    2.2321    3.0000    0.0000 C   0  0  0  0  0  0  0  0  0  0  0  0
    4.8301    3.5000    0.0000 C   0  0  0  0  0  0  0  0  0  0  0  0
    5.6962    3.0000    0.0000 C   0  0  0  0  0  0  0  0  0  0  0  0
    5.6962    5.0000    0.0000 C   0  0  0  0  0  0  0  0  0  0  0  0
    6.5622    4.5000    0.0000 C   0  0  0  0  0  0  0  0  0  0  0  0
    3.9641    3.0000    0.0000 C   0  0  0  0  0  0  0  0  0  0  0  0
    1.3660    0.5000    0.0000 I   0  0  0  0  0  0  0  0  0  0  0  0
    5.6962    2.0000    0.0000 N   0  0  0  0  0  0  0  0  0  0  0  0
    3.9641    2.0000    0.0000 N   0  0  0  0  0  0  0  0  0  0  0  0
    3.0981    3.5000    0.0000 N   0  0  0  0  0  0  0  0  0  0  0  0
    5.6962    6.0000    0.0000 O   0  0  0  0  0  0  0  0  0  0  0  0
    7.4282    5.0000    0.0000 O   0  0  0  0  0  0  0  0  0  0  0  0
  1 21  1  0
  2 22  1  0
  3  4  2  0
  3  5  1  0
  4 10  1  0
  5 11  2  0
  6 10  2  0
  6 11  1  0
  7 12  2  0
  7 14  1  0
  8 13  2  0
  8 15  1  0
  9 18  2  0
  9 19  1  0
 10 17  1  0
 11 20  1  0
 12 13  1  0
 12 16  1  0
 13 18  1  0
 14 15  2  0
 14 21  1  0
 15 22  1  0
 16 19  2  0
 16 20  1  0
M  END
>  <ACTIVITY>  (104) 
0.891

$$$$

     RDKit          2D

 22 24  0  0  0  0  0  0  0  0999 V2000
    0.0000    0.7486    0.0000 C   0  0  0  0  0  0  0  0  0  0  0  0
   -1.2964    1.4973    0.0000 C   0  0  0  0  0  0  0  0  0  0  0  0
    0.0000   -0.7486    0.0000 C   0  0  0  0  0  0  0  0  0  0  0  0
    1.2964    1.4973    0.0000 C   0  0  0  0  0  0  0  0  0  0  0  0
   -2.6111    0.7486    0.0000 N   0  0  0  0  0  0  0  0  0  0  0  0
    1.2964   -1.4973    0.0000 C   0  0  0  0  0  0  0  0  0  0  0  0
   -1.2907    2.9981    0.0000 N   0  0  0  0  0  0  0  0  0  0  0  0
    2.5929    0.7486    0.0000 C   0  0  0  0  0  0  0  0  0  0  0  0
    2.5929   -0.7486    0.0000 C   0  0  0  0  0  0  0  0  0  0  0  0
   -1.2964   -1.4973    0.0000 N   0  0  0  0  0  0  0  0  0  0  0  0
   -2.6111   -0.7486    0.0000 C   0  0  0  0  0  0  0  0  0  0  0  0
   -2.5870    3.7544    0.0000 C   0  0  0  0  0  0  0  0  0  0  0  0
   -2.5835    5.2544    0.0000 C   0  0  0  0  0  0  0  0  0  0  0  0
   -3.8807    6.0076    0.0000 C   0  0  0  0  0  0  0  0  0  0  0  0
    3.8911    1.5017    0.0000 O   0  0  0  0  0  0  0  0  0  0  0  0
    3.8911   -1.5017    0.0000 O   0  0  0  0  0  0  0  0  0  0  0  0
   -3.8777    7.2076    0.0000 Cl  0  0  0  0  0  0  0  0  0  0  0  0
   -5.1852    3.7608    0.0000 C   0  0  0  0  0  0  0  0  0  0  0  0
   -3.8880    3.0076    0.0000 C   0  0  0  0  0  0  0  0  0  0  0  0
   -5.1815    5.2608    0.0000 C   0  0  0  0  0  0  0  0  0  0  0  0
    3.8894    2.7017    0.0000 C   0  0  0  0  0  0  0  0  0  0  0  0
    3.8894   -2.7017    0.0000 C   0  0  0  0  0  0  0  0  0  0  0  0
  1  2  1  0
  1  3  1  0
  1  4  2  0
  2  5  2  0
  3  6  2  0
  2  7  1  0
  4  8  1  0
  6  9  1  0
  8  9  2  0
  3 10  1  0
  5 11  1  0
 10 11  2  0
  7 12  1  0
 12 13  2  0
 13 14  1  0
  8 15  1  0
  9 16  1  0
 14 17  1  0
 12 19  1  0
 18 19  2  0
 14 20  2  0
 18 20  1  0
 15 21  1  0
 16 22  1  0
M  END
>  <ACTIVITY>  (105) 
0.316

$$$$

     RDKit          2D

 22 24  0  0  0  0  0  0  0  0999 V2000
   -3.1620   -6.9625    0.0000 C   0  0  0  0  0  0  0  0  0  0  0  0
   -3.1632   -7.7894    0.0000 C   0  0  0  0  0  0  0  0  0  0  0  0
   -2.4489   -8.2021    0.0000 C   0  0  0  0  0  0  0  0  0  0  0  0
   -2.4507   -6.5500    0.0000 C   0  0  0  0  0  0  0  0  0  0  0  0
   -1.7357   -6.9589    0.0000 C   0  0  0  0  0  0  0  0  0  0  0  0
   -1.7323   -7.7915    0.0000 C   0  0  0  0  0  0  0  0  0  0  0  0
   -1.0135   -8.2026    0.0000 N   0  0  0  0  0  0  0  0  0  0  0  0
   -0.2935   -7.7856    0.0000 C   0  0  0  0  0  0  0  0  0  0  0  0
   -0.2969   -6.9530    0.0000 N   0  0  0  0  0  0  0  0  0  0  0  0
   -1.0203   -6.5374    0.0000 C   0  0  0  0  0  0  0  0  0  0  0  0
   -1.0249   -5.7128    0.0000 N   0  0  0  0  0  0  0  0  0  0  0  0
   -0.3131   -5.2967    0.0000 C   0  0  0  0  0  0  0  0  0  0  0  0
    0.3998   -5.7053    0.0000 C   0  0  0  0  0  0  0  0  0  0  0  0
    1.1110   -5.2899    0.0000 C   0  0  0  0  0  0  0  0  0  0  0  0
    1.1069   -4.4645    0.0000 C   0  0  0  0  0  0  0  0  0  0  0  0
    0.3856   -4.0563    0.0000 C   0  0  0  0  0  0  0  0  0  0  0  0
   -0.3227   -4.4742    0.0000 C   0  0  0  0  0  0  0  0  0  0  0  0
   -3.8762   -6.5504    0.0000 O   0  0  0  0  0  0  0  0  0  0  0  0
   -3.8776   -8.2011    0.0000 O   0  0  0  0  0  0  0  0  0  0  0  0
   -4.5913   -7.7883    0.0000 C   0  0  0  0  0  0  0  0  0  0  0  0
   -4.5902   -6.9629    0.0000 C   0  0  0  0  0  0  0  0  0  0  0  0
    0.3782   -3.2318    0.0000 F   0  0  0  0  0  0  0  0  0  0  0  0
  5  6  1  0
 10 11  1  0
 11 12  1  0
  2  3  1  0
 12 13  2  0
  3  6  2  0
 13 14  1  0
  1  2  2  0
 14 15  2  0
  5  4  2  0
 15 16  1  0
  4  1  1  0
 16 17  2  0
 17 12  1  0
  5 10  1  0
  1 18  1  0
  6  7  1  0
  2 19  1  0
  7  8  2  0
 19 20  1  0
  8  9  1  0
 18 21  1  0
  9 10  2  0
 16 22  1  0
M  END
>  <ACTIVITY>  (106) 
3.8

$$$$

     RDKit          2D

 21 23  0  0  0  0  0  0  0  0999 V2000
    0.0000    0.7486    0.0000 C   0  0  0  0  0  0  0  0  0  0  0  0
   -1.2964    1.4973    0.0000 C   0  0  0  0  0  0  0  0  0  0  0  0
    0.0000   -0.7486    0.0000 C   0  0  0  0  0  0  0  0  0  0  0  0
    1.2964    1.4973    0.0000 C   0  0  0  0  0  0  0  0  0  0  0  0
   -2.6111    0.7486    0.0000 N   0  0  0  0  0  0  0  0  0  0  0  0
    1.2964   -1.4973    0.0000 C   0  0  0  0  0  0  0  0  0  0  0  0
   -1.2907    2.9981    0.0000 N   0  0  0  0  0  0  0  0  0  0  0  0
    2.5929    0.7486    0.0000 C   0  0  0  0  0  0  0  0  0  0  0  0
    2.5929   -0.7486    0.0000 C   0  0  0  0  0  0  0  0  0  0  0  0
   -1.2964   -1.4973    0.0000 N   0  0  0  0  0  0  0  0  0  0  0  0
   -2.6111   -0.7486    0.0000 C   0  0  0  0  0  0  0  0  0  0  0  0
   -2.5870    3.7544    0.0000 C   0  0  0  0  0  0  0  0  0  0  0  0
    3.8911    1.5017    0.0000 O   0  0  0  0  0  0  0  0  0  0  0  0
    3.8911   -1.5017    0.0000 O   0  0  0  0  0  0  0  0  0  0  0  0
   -2.5835    5.2544    0.0000 C   0  0  0  0  0  0  0  0  0  0  0  0
   -3.8880    3.0076    0.0000 C   0  0  0  0  0  0  0  0  0  0  0  0
    3.8894   -2.7017    0.0000 C   0  0  0  0  0  0  0  0  0  0  0  0
    3.8894    2.7017    0.0000 C   0  0  0  0  0  0  0  0  0  0  0  0
   -5.1852    3.7608    0.0000 C   0  0  0  0  0  0  0  0  0  0  0  0
   -3.8807    6.0076    0.0000 C   0  0  0  0  0  0  0  0  0  0  0  0
   -5.1815    5.2608    0.0000 C   0  0  0  0  0  0  0  0  0  0  0  0
  1  2  1  0
  1  3  1  0
  1  4  2  0
  2  5  2  0
  3  6  2  0
  2  7  1  0
  4  8  1  0
  6  9  1  0
  8  9  2  0
  3 10  1  0
  5 11  1  0
 10 11  2  0
  7 12  1  0
  8 13  1  0
  9 14  1  0
 12 15  2  0
 12 16  1  0
 14 17  1  0
 13 18  1  0
 16 19  2  0
 15 20  1  0
 19 21  1  0
 20 21  2  0
M  END
>  <ACTIVITY>  (107) 
29.51

$$$$

     RDKit          2D

 21 23  0  0  0  0  0  0  0  0999 V2000
   -0.6833   -1.9667    0.0000 N   0  0  0  0  0  0  0  0  0  0  0  0
    1.3792   -0.7292    0.0000 C   0  0  0  0  0  0  0  0  0  0  0  0
    0.8667   -1.0292    0.0000 C   0  0  0  0  0  0  0  0  0  0  0  0
    0.8750   -1.6292    0.0000 C   0  0  0  0  0  0  0  0  0  0  0  0
   -0.1625   -1.6542    0.0000 C   0  0  0  0  0  0  0  0  0  0  0  0
    1.9000   -1.0167    0.0000 N   0  0  0  0  0  0  0  0  0  0  0  0
    0.3625   -1.9417    0.0000 C   0  0  0  0  0  0  0  0  0  0  0  0
    1.3750   -0.1292    0.0000 N   0  0  0  0  0  0  0  0  0  0  0  0
    0.3417   -0.7417    0.0000 C   0  0  0  0  0  0  0  0  0  0  0  0
    1.3917   -1.9250    0.0000 N   0  0  0  0  0  0  0  0  0  0  0  0
   -1.2083   -1.6792    0.0000 O   0  0  0  0  0  0  0  0  0  0  0  0
    1.9125   -1.6167    0.0000 C   0  0  0  0  0  0  0  0  0  0  0  0
   -0.6708   -2.5667    0.0000 O   0  0  0  0  0  0  0  0  0  0  0  0
    1.8917    0.1750    0.0000 C   0  0  0  0  0  0  0  0  0  0  0  0
   -0.1750   -1.0542    0.0000 C   0  0  0  0  0  0  0  0  0  0  0  0
    2.4125   -0.1167    0.0000 C   0  0  0  0  0  0  0  0  0  0  0  0
    2.9292    0.1833    0.0000 C   0  0  0  0  0  0  0  0  0  0  0  0
    3.4500   -0.1167    0.0000 I   0  0  0  0  0  0  0  0  0  0  0  0
    2.4000    1.0833    0.0000 C   0  0  0  0  0  0  0  0  0  0  0  0
    1.8792    0.7750    0.0000 C   0  0  0  0  0  0  0  0  0  0  0  0
    2.9250    0.7833    0.0000 C   0  0  0  0  0  0  0  0  0  0  0  0
  2  3  2  0
  3  9  1  0
  4  7  1  0
  5  1  1  0
  6  2  1  0
  7  5  2  0
  8  2  1  0
  9 15  2  0
 10  4  2  0
 11  1  1  0
 12 10  1  0
 13  1  2  0
 14  8  1  0
 15  5  1  0
 16 14  2  0
 17 16  1  0
 18 17  1  0
 19 20  2  0
 20 14  1  0
 21 19  1  0
  4  3  1  0
 12  6  2  0
 17 21  2  0
M  CHG  2   1   1  11  -1
M  END
>  <ACTIVITY>  (108) 
549.54

$$$$

     RDKit          2D

 21 23  0  0  0  0  0  0  0  0999 V2000
   -0.6833   -1.9667    0.0000 N   0  0  0  0  0  0  0  0  0  0  0  0
    1.3792   -0.7292    0.0000 C   0  0  0  0  0  0  0  0  0  0  0  0
    0.8667   -1.0292    0.0000 C   0  0  0  0  0  0  0  0  0  0  0  0
    0.8750   -1.6292    0.0000 C   0  0  0  0  0  0  0  0  0  0  0  0
   -0.1625   -1.6542    0.0000 C   0  0  0  0  0  0  0  0  0  0  0  0
    1.9000   -1.0167    0.0000 N   0  0  0  0  0  0  0  0  0  0  0  0
    0.3625   -1.9417    0.0000 C   0  0  0  0  0  0  0  0  0  0  0  0
    1.3750   -0.1292    0.0000 N   0  0  0  0  0  0  0  0  0  0  0  0
    0.3417   -0.7417    0.0000 C   0  0  0  0  0  0  0  0  0  0  0  0
    1.3917   -1.9250    0.0000 N   0  0  0  0  0  0  0  0  0  0  0  0
   -1.2083   -1.6792    0.0000 O   0  0  0  0  0  0  0  0  0  0  0  0
    1.9125   -1.6167    0.0000 C   0  0  0  0  0  0  0  0  0  0  0  0
   -0.6708   -2.5667    0.0000 O   0  0  0  0  0  0  0  0  0  0  0  0
    1.8917    0.1750    0.0000 C   0  0  0  0  0  0  0  0  0  0  0  0
   -0.1750   -1.0542    0.0000 C   0  0  0  0  0  0  0  0  0  0  0  0
    2.4125   -0.1167    0.0000 C   0  0  0  0  0  0  0  0  0  0  0  0
    2.9292    0.1833    0.0000 C   0  0  0  0  0  0  0  0  0  0  0  0
    3.4500   -0.1167    0.0000 Cl  0  0  0  0  0  0  0  0  0  0  0  0
    2.4000    1.0833    0.0000 C   0  0  0  0  0  0  0  0  0  0  0  0
    1.8792    0.7750    0.0000 C   0  0  0  0  0  0  0  0  0  0  0  0
    2.9250    0.7833    0.0000 C   0  0  0  0  0  0  0  0  0  0  0  0
  2  3  2  0
  3  9  1  0
  4  7  1  0
  5  1  1  0
  6  2  1  0
  7  5  2  0
  8  2  1  0
  9 15  2  0
 10  4  2  0
 11  1  1  0
 12 10  1  0
 13  1  2  0
 14  8  1  0
 15  5  1  0
 16 14  2  0
 17 16  1  0
 18 17  1  0
 19 20  2  0
 20 14  1  0
 21 19  1  0
  4  3  1  0
 12  6  2  0
 17 21  2  0
M  CHG  2   1   1  11  -1
M  END
>  <ACTIVITY>  (109) 
812.83

$$$$

     RDKit          2D

 21 23  0  0  0  0  0  0  0  0999 V2000
   -0.6833   -1.9667    0.0000 N   0  0  0  0  0  0  0  0  0  0  0  0
    1.3792   -0.7292    0.0000 C   0  0  0  0  0  0  0  0  0  0  0  0
    0.8667   -1.0292    0.0000 C   0  0  0  0  0  0  0  0  0  0  0  0
    0.8750   -1.6292    0.0000 C   0  0  0  0  0  0  0  0  0  0  0  0
   -0.1625   -1.6542    0.0000 C   0  0  0  0  0  0  0  0  0  0  0  0
    1.9000   -1.0167    0.0000 N   0  0  0  0  0  0  0  0  0  0  0  0
    0.3625   -1.9417    0.0000 C   0  0  0  0  0  0  0  0  0  0  0  0
    1.3750   -0.1292    0.0000 N   0  0  0  0  0  0  0  0  0  0  0  0
    0.3417   -0.7417    0.0000 C   0  0  0  0  0  0  0  0  0  0  0  0
    1.3917   -1.9250    0.0000 N   0  0  0  0  0  0  0  0  0  0  0  0
   -1.2083   -1.6792    0.0000 O   0  0  0  0  0  0  0  0  0  0  0  0
    1.9125   -1.6167    0.0000 C   0  0  0  0  0  0  0  0  0  0  0  0
   -0.6708   -2.5667    0.0000 O   0  0  0  0  0  0  0  0  0  0  0  0
    1.8917    0.1750    0.0000 C   0  0  0  0  0  0  0  0  0  0  0  0
   -0.1750   -1.0542    0.0000 C   0  0  0  0  0  0  0  0  0  0  0  0
    2.4125   -0.1167    0.0000 C   0  0  0  0  0  0  0  0  0  0  0  0
    2.9292    0.1833    0.0000 C   0  0  0  0  0  0  0  0  0  0  0  0
    3.4500   -0.1167    0.0000 F   0  0  0  0  0  0  0  0  0  0  0  0
    2.4000    1.0833    0.0000 C   0  0  0  0  0  0  0  0  0  0  0  0
    1.8792    0.7750    0.0000 C   0  0  0  0  0  0  0  0  0  0  0  0
    2.9250    0.7833    0.0000 C   0  0  0  0  0  0  0  0  0  0  0  0
  2  3  2  0
  3  9  1  0
  4  7  1  0
  5  1  1  0
  6  2  1  0
  7  5  2  0
  8  2  1  0
  9 15  2  0
 10  4  2  0
 11  1  1  0
 12 10  1  0
 13  1  2  0
 14  8  1  0
 15  5  1  0
 16 14  2  0
 17 16  1  0
 18 17  1  0
 19 20  2  0
 20 14  1  0
 21 19  1  0
  4  3  1  0
 12  6  2  0
 17 21  2  0
M  CHG  2   1   1  11  -1
M  END
>  <ACTIVITY>  (110) 
6165.95

$$$$

     RDKit          2D

 22 24  0  0  0  0  0  0  0  0999 V2000
    6.0792   -4.1625    0.0000 C   0  0  0  0  0  0  0  0  0  0  0  0
    5.3667   -4.5792    0.0000 C   0  0  0  0  0  0  0  0  0  0  0  0
    8.9417   -3.3167    0.0000 C   0  0  0  0  0  0  0  0  0  0  0  0
    5.3792   -5.4042    0.0000 C   0  0  0  0  0  0  0  0  0  0  0  0
    6.8000   -4.5625    0.0000 N   0  0  0  0  0  0  0  0  0  0  0  0
    6.0750   -3.3292    0.0000 N   0  0  0  0  0  0  0  0  0  0  0  0
    8.2250   -2.9000    0.0000 C   0  0  0  0  0  0  0  0  0  0  0  0
    6.0917   -5.8167    0.0000 N   0  0  0  0  0  0  0  0  0  0  0  0
    4.6417   -4.1792    0.0000 C   0  0  0  0  0  0  0  0  0  0  0  0
    4.6667   -5.8417    0.0000 C   0  0  0  0  0  0  0  0  0  0  0  0
    6.8167   -5.3917    0.0000 C   0  0  0  0  0  0  0  0  0  0  0  0
    6.7917   -2.9125    0.0000 C   0  0  0  0  0  0  0  0  0  0  0  0
    7.5125   -3.3167    0.0000 C   0  0  0  0  0  0  0  0  0  0  0  0
    9.6542   -3.7292    0.0000 F   0  0  0  0  0  0  0  0  0  0  0  0
    9.3542   -2.6000    0.0000 F   0  0  0  0  0  0  0  0  0  0  0  0
    8.5292   -4.0292    0.0000 F   0  0  0  0  0  0  0  0  0  0  0  0
    3.9417   -5.4417    0.0000 C   0  0  0  0  0  0  0  0  0  0  0  0
    3.9292   -4.6125    0.0000 C   0  0  0  0  0  0  0  0  0  0  0  0
    3.2375   -5.8792    0.0000 N   0  0  0  0  0  0  0  0  0  0  0  0
    8.2167   -2.0667    0.0000 C   0  0  0  0  0  0  0  0  0  0  0  0
    7.4917   -1.6542    0.0000 C   0  0  0  0  0  0  0  0  0  0  0  0
    6.7667   -2.0792    0.0000 C   0  0  0  0  0  0  0  0  0  0  0  0
  2  1  1  0
  3  7  1  0
  4  2  2  0
  5  1  2  0
  6  1  1  0
  7 13  2  0
  8 11  2  0
  9  2  1  0
 10  4  1  0
 11  5  1  0
 12  6  1  0
 13 12  1  0
 14  3  1  0
 15  3  1  0
 16  3  1  0
 17 18  1  0
 18  9  2  0
 19 17  1  0
 20 21  2  0
 21 22  1  0
 22 12  2  0
  4  8  1  0
 17 10  2  0
  7 20  1  0
M  END
>  <ACTIVITY>  (111) 
3.31

$$$$

     RDKit          2D

 18 20  0  0  0  0  0  0  0  0999 V2000
    1.3792   -0.7292    0.0000 C   0  0  0  0  0  0  0  0  0  0  0  0
    0.8667   -1.0292    0.0000 C   0  0  0  0  0  0  0  0  0  0  0  0
    0.8750   -1.6292    0.0000 C   0  0  0  0  0  0  0  0  0  0  0  0
    1.9000   -1.0167    0.0000 N   0  0  0  0  0  0  0  0  0  0  0  0
    1.3750   -0.1292    0.0000 N   0  0  0  0  0  0  0  0  0  0  0  0
    1.3917   -1.9250    0.0000 N   0  0  0  0  0  0  0  0  0  0  0  0
    0.3417   -0.7417    0.0000 C   0  0  0  0  0  0  0  0  0  0  0  0
    0.3625   -1.9417    0.0000 C   0  0  0  0  0  0  0  0  0  0  0  0
    1.9125   -1.6167    0.0000 C   0  0  0  0  0  0  0  0  0  0  0  0
   -0.1625   -1.6542    0.0000 C   0  0  0  0  0  0  0  0  0  0  0  0
    1.8917    0.1750    0.0000 C   0  0  0  0  0  0  0  0  0  0  0  0
   -0.1750   -1.0542    0.0000 C   0  0  0  0  0  0  0  0  0  0  0  0
   -0.6750   -1.9667    0.0000 N   0  0  0  0  0  0  0  0  0  0  0  0
    1.8792    0.7750    0.0000 C   0  0  0  0  0  0  0  0  0  0  0  0
    2.4125   -0.1167    0.0000 C   0  0  0  0  0  0  0  0  0  0  0  0
    2.9292    0.1833    0.0000 C   0  0  0  0  0  0  0  0  0  0  0  0
    2.4000    1.0833    0.0000 C   0  0  0  0  0  0  0  0  0  0  0  0
    2.9250    0.7833    0.0000 C   0  0  0  0  0  0  0  0  0  0  0  0
  2  1  1  0
  3  2  2  0
  4  1  2  0
  5  1  1  0
  6  9  2  0
  7  2  1  0
  8  3  1  0
  9  4  1  0
 10 12  1  0
 11  5  1  0
 12  7  2  0
 13 10  1  0
 14 11  2  0
 15 11  1  0
 16 15  2  0
 17 14  1  0
 18 16  1  0
  3  6  1  0
  8 10  2  0
 17 18  2  0
M  END
>  <ACTIVITY>  (112) 
100

$$$$

     RDKit          2D

 20 21  0  0  0  0  0  0  0  0999 V2000
   -2.6111    0.7486    0.0000 C   0  0  0  0  0  0  0  0  0  0  0  0
   -2.6111   -0.7486    0.0000 C   0  0  0  0  0  0  0  0  0  0  0  0
   -1.2964   -1.4973    0.0000 C   0  0  0  0  0  0  0  0  0  0  0  0
   -1.2964    1.4973    0.0000 C   0  0  0  0  0  0  0  0  0  0  0  0
    0.0000    0.7486    0.0000 C   0  0  0  0  0  0  0  0  0  0  0  0
    0.0000   -0.7486    0.0000 C   0  0  0  0  0  0  0  0  0  0  0  0
    1.2964   -1.4973    0.0000 N   0  0  0  0  0  0  0  0  0  0  0  0
    2.5929   -0.7486    0.0000 C   0  0  0  0  0  0  0  0  0  0  0  0
    2.5929    0.7486    0.0000 N   0  0  0  0  0  0  0  0  0  0  0  0
    1.2964    1.4973    0.0000 C   0  0  0  0  0  0  0  0  0  0  0  0
    1.2995    2.9981    0.0000 N   0  0  0  0  0  0  0  0  0  0  0  0
    2.6003    3.7467    0.0000 C   0  0  0  0  0  0  0  0  0  0  0  0
    2.6056    5.2467    0.0000 C   0  0  0  0  0  0  0  0  0  0  0  0
    3.9072    5.9922    0.0000 C   0  0  0  0  0  0  0  0  0  0  0  0
    5.2037    5.2377    0.0000 C   0  0  0  0  0  0  0  0  0  0  0  0
    5.1985    3.7377    0.0000 C   0  0  0  0  0  0  0  0  0  0  0  0
    3.8969    2.9922    0.0000 C   0  0  0  0  0  0  0  0  0  0  0  0
   -3.9091    1.5019    0.0000 O   0  0  0  0  0  0  0  0  0  0  0  0
   -3.9072    2.7019    0.0000 C   0  0  0  0  0  0  0  0  0  0  0  0
    7.7037    2.2475    0.0000 Cl  0  0  0  0  0  0  0  0  0  0  0  0
  1  2  2  0
  2  3  1  0
  1  4  1  0
  4  5  2  0
  3  6  2  0
  5  6  1  0
  6  7  1  0
  7  8  2  0
  8  9  1  0
  5 10  1  0
  9 10  2  0
 10 11  1  0
 11 12  1  0
 12 13  2  0
 13 14  1  0
 14 15  2  0
 15 16  1  0
 12 17  1  0
 16 17  2  0
  1 18  1  0
 18 19  1  0
M  END
>  <ACTIVITY>  (113) 
120.23

$$$$

     RDKit          2D

 22 24  0  0  0  0  0  0  0  0999 V2000
    6.3292   -4.3792    0.0000 C   0  0  0  0  0  0  0  0  0  0  0  0
    5.6167   -4.7917    0.0000 C   0  0  0  0  0  0  0  0  0  0  0  0
    9.1917   -3.5625    0.0000 C   0  0  0  0  0  0  0  0  0  0  0  0
    7.0500   -4.7917    0.0000 N   0  0  0  0  0  0  0  0  0  0  0  0
    6.3292   -3.5542    0.0000 N   0  0  0  0  0  0  0  0  0  0  0  0
    8.4750   -3.1417    0.0000 C   0  0  0  0  0  0  0  0  0  0  0  0
    5.6167   -5.6167    0.0000 C   0  0  0  0  0  0  0  0  0  0  0  0
    6.3292   -6.0292    0.0000 N   0  0  0  0  0  0  0  0  0  0  0  0
    7.0500   -5.6167    0.0000 C   0  0  0  0  0  0  0  0  0  0  0  0
    4.9042   -4.3792    0.0000 C   0  0  0  0  0  0  0  0  0  0  0  0
    7.0417   -3.1417    0.0000 C   0  0  0  0  0  0  0  0  0  0  0  0
    7.7542   -3.5542    0.0000 C   0  0  0  0  0  0  0  0  0  0  0  0
    8.7750   -4.2792    0.0000 F   0  0  0  0  0  0  0  0  0  0  0  0
    9.6167   -2.8417    0.0000 F   0  0  0  0  0  0  0  0  0  0  0  0
    9.9167   -3.9792    0.0000 F   0  0  0  0  0  0  0  0  0  0  0  0
    4.9042   -6.0292    0.0000 C   0  0  0  0  0  0  0  0  0  0  0  0
    4.1917   -4.7917    0.0000 C   0  0  0  0  0  0  0  0  0  0  0  0
    3.4667   -4.3792    0.0000 N   0  0  0  0  0  0  0  0  0  0  0  0
    4.1917   -5.6167    0.0000 C   0  0  0  0  0  0  0  0  0  0  0  0
    8.4750   -2.3125    0.0000 C   0  0  0  0  0  0  0  0  0  0  0  0
    7.7542   -1.9000    0.0000 C   0  0  0  0  0  0  0  0  0  0  0  0
    7.0417   -2.3125    0.0000 C   0  0  0  0  0  0  0  0  0  0  0  0
  2  1  1  0
  3  6  1  0
  4  1  2  0
  5  1  1  0
  6 12  2  0
  7  2  2  0
  8  9  2  0
  9  4  1  0
 10  2  1  0
 11  5  1  0
 12 11  1  0
 13  3  1  0
 14  3  1  0
 15  3  1  0
 16  7  1  0
 17 10  2  0
 18 17  1  0
 19 17  1  0
 20 21  2  0
 21 22  1  0
 22 11  2  0
  7  8  1  0
 19 16  2  0
  6 20  1  0
M  END
>  <ACTIVITY>  (114) 
575.44

$$$$

     RDKit          2D

 18 20  0  0  0  0  0  0  0  0999 V2000
    1.3792   -0.8250    0.0000 C   0  0  0  0  0  0  0  0  0  0  0  0
    0.8667   -1.1292    0.0000 C   0  0  0  0  0  0  0  0  0  0  0  0
    1.9000   -1.1125    0.0000 N   0  0  0  0  0  0  0  0  0  0  0  0
    1.3750   -0.2167    0.0000 N   0  0  0  0  0  0  0  0  0  0  0  0
    0.8750   -1.7292    0.0000 C   0  0  0  0  0  0  0  0  0  0  0  0
    1.3917   -2.0167    0.0000 N   0  0  0  0  0  0  0  0  0  0  0  0
    1.9125   -1.7125    0.0000 C   0  0  0  0  0  0  0  0  0  0  0  0
    0.3417   -0.8375    0.0000 C   0  0  0  0  0  0  0  0  0  0  0  0
    0.3625   -2.0417    0.0000 C   0  0  0  0  0  0  0  0  0  0  0  0
   -0.1750   -1.1500    0.0000 C   0  0  0  0  0  0  0  0  0  0  0  0
    1.8917    0.0833    0.0000 C   0  0  0  0  0  0  0  0  0  0  0  0
   -0.7000   -0.8542    0.0000 N   0  0  0  0  0  0  0  0  0  0  0  0
   -0.1625   -1.7542    0.0000 C   0  0  0  0  0  0  0  0  0  0  0  0
    1.8792    0.6833    0.0000 C   0  0  0  0  0  0  0  0  0  0  0  0
    2.4125   -0.2167    0.0000 C   0  0  0  0  0  0  0  0  0  0  0  0
    2.9292    0.0875    0.0000 C   0  0  0  0  0  0  0  0  0  0  0  0
    2.4000    0.9833    0.0000 C   0  0  0  0  0  0  0  0  0  0  0  0
    2.9250    0.6875    0.0000 C   0  0  0  0  0  0  0  0  0  0  0  0
  2  1  1  0
  3  1  2  0
  4  1  1  0
  5  2  2  0
  6  7  2  0
  7  3  1  0
  8  2  1  0
  9  5  1  0
 10  8  2  0
 11  4  1  0
 12 10  1  0
 13 10  1  0
 14 11  2  0
 15 11  1  0
 16 15  2  0
 17 14  1  0
 18 16  1  0
  5  6  1  0
  9 13  2  0
 17 18  2  0
M  END
>  <ACTIVITY>  (115) 
776.25

$$$$

     RDKit          2D

 19 21  0  0  0  0  0  0  0  0999 V2000
   -2.6111    0.7486    0.0000 C   0  0  0  0  0  0  0  0  0  0  0  0
   -2.6111   -0.7486    0.0000 C   0  0  0  0  0  0  0  0  0  0  0  0
   -1.2964   -1.4973    0.0000 C   0  0  0  0  0  0  0  0  0  0  0  0
   -1.2964    1.4973    0.0000 C   0  0  0  0  0  0  0  0  0  0  0  0
    0.0000    0.7486    0.0000 C   0  0  0  0  0  0  0  0  0  0  0  0
    0.0000   -0.7486    0.0000 C   0  0  0  0  0  0  0  0  0  0  0  0
    1.2964   -1.4973    0.0000 N   0  0  0  0  0  0  0  0  0  0  0  0
    2.5929   -0.7486    0.0000 C   0  0  0  0  0  0  0  0  0  0  0  0
    2.5929    0.7486    0.0000 N   0  0  0  0  0  0  0  0  0  0  0  0
    1.2964    1.4973    0.0000 C   0  0  0  0  0  0  0  0  0  0  0  0
    1.2995    2.9981    0.0000 N   0  0  0  0  0  0  0  0  0  0  0  0
    2.6003    3.7467    0.0000 C   0  0  0  0  0  0  0  0  0  0  0  0
    2.6056    5.2467    0.0000 C   0  0  0  0  0  0  0  0  0  0  0  0
    3.9072    5.9922    0.0000 C   0  0  0  0  0  0  0  0  0  0  0  0
    5.2037    5.2377    0.0000 C   0  0  0  0  0  0  0  0  0  0  0  0
    5.1985    3.7377    0.0000 C   0  0  0  0  0  0  0  0  0  0  0  0
    3.8969    2.9922    0.0000 C   0  0  0  0  0  0  0  0  0  0  0  0
   -3.9091    1.5019    0.0000 O   0  0  0  0  0  0  0  0  0  0  0  0
   -3.9072    2.7019    0.0000 C   0  0  0  0  0  0  0  0  0  0  0  0
  1  2  2  0
  2  3  1  0
  1  4  1  0
  4  5  2  0
  3  6  2  0
  5  6  1  0
  6  7  1  0
  7  8  2  0
  8  9  1  0
  5 10  1  0
  9 10  2  0
 10 11  1  0
 11 12  1  0
 12 13  2  0
 13 14  1  0
 14 15  2  0
 15 16  1  0
 12 17  1  0
 16 17  2  0
  1 18  1  0
 18 19  1  0
M  END
>  <ACTIVITY>  (116) 
56.23

$$$$

     RDKit          2D

 18 20  0  0  0  0  0  0  0  0999 V2000
    6.0667   -4.3792    0.0000 C   0  0  0  0  0  0  0  0  0  0  0  0
    5.3542   -4.7917    0.0000 C   0  0  0  0  0  0  0  0  0  0  0  0
    6.7792   -4.7917    0.0000 N   0  0  0  0  0  0  0  0  0  0  0  0
    6.0667   -3.5542    0.0000 N   0  0  0  0  0  0  0  0  0  0  0  0
    6.0667   -6.0292    0.0000 N   0  0  0  0  0  0  0  0  0  0  0  0
    6.7792   -5.6167    0.0000 C   0  0  0  0  0  0  0  0  0  0  0  0
    5.3542   -5.6167    0.0000 C   0  0  0  0  0  0  0  0  0  0  0  0
    6.7792   -3.1417    0.0000 C   0  0  0  0  0  0  0  0  0  0  0  0
    7.4917   -3.5542    0.0000 C   0  0  0  0  0  0  0  0  0  0  0  0
    8.2042   -3.1417    0.0000 C   0  0  0  0  0  0  0  0  0  0  0  0
    8.9292   -3.5625    0.0000 F   0  0  0  0  0  0  0  0  0  0  0  0
    4.6417   -4.3792    0.0000 C   0  0  0  0  0  0  0  0  0  0  0  0
    7.4917   -1.9000    0.0000 C   0  0  0  0  0  0  0  0  0  0  0  0
    6.7792   -2.3125    0.0000 C   0  0  0  0  0  0  0  0  0  0  0  0
    8.2042   -2.3125    0.0000 C   0  0  0  0  0  0  0  0  0  0  0  0
    4.6417   -6.0292    0.0000 C   0  0  0  0  0  0  0  0  0  0  0  0
    3.9250   -4.7917    0.0000 C   0  0  0  0  0  0  0  0  0  0  0  0
    3.9250   -5.6167    0.0000 C   0  0  0  0  0  0  0  0  0  0  0  0
  2  1  1  0
  3  1  2  0
  4  1  1  0
  5  6  2  0
  6  3  1  0
  7  2  2  0
  8  4  1  0
  9  8  2  0
 10  9  1  0
 11 10  1  0
 12  2  1  0
 13 14  2  0
 14  8  1  0
 15 13  1  0
 16  7  1  0
 17 12  2  0
 18 17  1  0
  7  5  1  0
 16 18  2  0
 10 15  2  0
M  END
>  <ACTIVITY>  (117) 
56.23

$$$$

     RDKit          2D

 20 22  0  0  0  0  0  0  0  0999 V2000
    0.8667   -1.0292    0.0000 C   0  0  0  0  0  0  0  0  0  0  0  0
    1.3792   -0.7292    0.0000 C   0  0  0  0  0  0  0  0  0  0  0  0
    0.8750   -1.6292    0.0000 C   0  0  0  0  0  0  0  0  0  0  0  0
    0.3417   -0.7417    0.0000 C   0  0  0  0  0  0  0  0  0  0  0  0
    1.9000   -1.0167    0.0000 N   0  0  0  0  0  0  0  0  0  0  0  0
    0.3625   -1.9417    0.0000 C   0  0  0  0  0  0  0  0  0  0  0  0
    1.3750   -0.1292    0.0000 N   0  0  0  0  0  0  0  0  0  0  0  0
   -0.1750   -1.0542    0.0000 C   0  0  0  0  0  0  0  0  0  0  0  0
   -0.1625   -1.6542    0.0000 C   0  0  0  0  0  0  0  0  0  0  0  0
    1.3917   -1.9250    0.0000 N   0  0  0  0  0  0  0  0  0  0  0  0
    1.9125   -1.6167    0.0000 C   0  0  0  0  0  0  0  0  0  0  0  0
    1.8917    0.1750    0.0000 C   0  0  0  0  0  0  0  0  0  0  0  0
    2.4125   -0.1167    0.0000 C   0  0  0  0  0  0  0  0  0  0  0  0
   -0.7000   -0.7542    0.0000 N   0  0  0  0  0  0  0  0  0  0  0  0
   -0.6750   -1.9667    0.0000 N   0  0  0  0  0  0  0  0  0  0  0  0
    2.9292    0.1833    0.0000 C   0  0  0  0  0  0  0  0  0  0  0  0
    3.4417   -0.1167    0.0000 Br  0  0  0  0  0  0  0  0  0  0  0  0
    2.4000    1.0833    0.0000 C   0  0  0  0  0  0  0  0  0  0  0  0
    1.8792    0.7750    0.0000 C   0  0  0  0  0  0  0  0  0  0  0  0
    2.9250    0.7833    0.0000 C   0  0  0  0  0  0  0  0  0  0  0  0
  2  1  1  0
  3  1  1  0
  4  1  2  0
  5  2  2  0
  6  3  2  0
  7  2  1  0
  8  4  1  0
  9  8  2  0
 10  3  1  0
 11 10  2  0
 12  7  1  0
 13 12  2  0
 14  8  1  0
 15  9  1  0
 16 13  1  0
 17 16  1  0
 18 19  2  0
 19 12  1  0
 20 18  1  0
  6  9  1  0
  5 11  1  0
 16 20  2  0
M  END
>  <ACTIVITY>  (118) 
0.12

$$$$

     RDKit          2D

 20 22  0  0  0  0  0  0  0  0999 V2000
    0.8667   -1.0292    0.0000 C   0  0  0  0  0  0  0  0  0  0  0  0
    1.3792   -0.7292    0.0000 C   0  0  0  0  0  0  0  0  0  0  0  0
    0.8750   -1.6292    0.0000 C   0  0  0  0  0  0  0  0  0  0  0  0
    0.3417   -0.7417    0.0000 C   0  0  0  0  0  0  0  0  0  0  0  0
    1.9000   -1.0167    0.0000 N   0  0  0  0  0  0  0  0  0  0  0  0
    0.3625   -1.9417    0.0000 C   0  0  0  0  0  0  0  0  0  0  0  0
    1.3750   -0.1292    0.0000 N   0  0  0  0  0  0  0  0  0  0  0  0
   -0.1750   -1.0542    0.0000 C   0  0  0  0  0  0  0  0  0  0  0  0
   -0.1625   -1.6542    0.0000 C   0  0  0  0  0  0  0  0  0  0  0  0
    1.3917   -1.9250    0.0000 N   0  0  0  0  0  0  0  0  0  0  0  0
    1.9125   -1.6167    0.0000 C   0  0  0  0  0  0  0  0  0  0  0  0
    1.8917    0.1750    0.0000 C   0  0  0  0  0  0  0  0  0  0  0  0
    2.4125   -0.1167    0.0000 C   0  0  0  0  0  0  0  0  0  0  0  0
    2.9292    0.1833    0.0000 C   0  0  0  0  0  0  0  0  0  0  0  0
   -0.7000   -0.7625    0.0000 O   0  0  0  0  0  0  0  0  0  0  0  0
   -0.6833   -1.9667    0.0000 O   0  0  0  0  0  0  0  0  0  0  0  0
    3.4417   -0.1167    0.0000 Br  0  0  0  0  0  0  0  0  0  0  0  0
    2.4000    1.0833    0.0000 C   0  0  0  0  0  0  0  0  0  0  0  0
    1.8792    0.7750    0.0000 C   0  0  0  0  0  0  0  0  0  0  0  0
    2.9250    0.7833    0.0000 C   0  0  0  0  0  0  0  0  0  0  0  0
  2  1  1  0
  3  1  1  0
  4  1  2  0
  5  2  2  0
  6  3  2  0
  7  2  1  0
  8  4  1  0
  9  8  2  0
 10  3  1  0
 11 10  2  0
 12  7  1  0
 13 12  2  0
 14 13  1  0
 15  8  1  0
 16  9  1  0
 17 14  1  0
 18 19  2  0
 19 12  1  0
 20 18  1  0
  6  9  1  0
  5 11  1  0
 14 20  2  0
M  END
>  <ACTIVITY>  (119) 
0.174

$$$$

     RDKit          2D

 20 22  0  0  0  0  0  0  0  0999 V2000
    1.3792   -0.7292    0.0000 C   0  0  0  0  0  0  0  0  0  0  0  0
    0.8667   -1.0292    0.0000 C   0  0  0  0  0  0  0  0  0  0  0  0
    0.8750   -1.6292    0.0000 C   0  0  0  0  0  0  0  0  0  0  0  0
    1.9000   -1.0167    0.0000 N   0  0  0  0  0  0  0  0  0  0  0  0
    1.3750   -0.1292    0.0000 N   0  0  0  0  0  0  0  0  0  0  0  0
    1.3917   -1.9250    0.0000 N   0  0  0  0  0  0  0  0  0  0  0  0
    0.3417   -0.7417    0.0000 C   0  0  0  0  0  0  0  0  0  0  0  0
    0.3625   -1.9417    0.0000 C   0  0  0  0  0  0  0  0  0  0  0  0
    1.9125   -1.6167    0.0000 C   0  0  0  0  0  0  0  0  0  0  0  0
    1.8917    0.1750    0.0000 C   0  0  0  0  0  0  0  0  0  0  0  0
    2.4125   -0.1167    0.0000 C   0  0  0  0  0  0  0  0  0  0  0  0
   -0.1625   -1.6542    0.0000 C   0  0  0  0  0  0  0  0  0  0  0  0
   -0.1750   -1.0542    0.0000 C   0  0  0  0  0  0  0  0  0  0  0  0
    2.9292    0.1833    0.0000 C   0  0  0  0  0  0  0  0  0  0  0  0
    3.4417   -0.1167    0.0000 Br  0  0  0  0  0  0  0  0  0  0  0  0
   -0.6750   -1.9667    0.0000 O   0  0  0  0  0  0  0  0  0  0  0  0
    2.4000    1.0833    0.0000 C   0  0  0  0  0  0  0  0  0  0  0  0
    1.8792    0.7750    0.0000 C   0  0  0  0  0  0  0  0  0  0  0  0
    2.9250    0.7833    0.0000 C   0  0  0  0  0  0  0  0  0  0  0  0
   -1.2000   -1.6792    0.0000 C   0  0  0  0  0  0  0  0  0  0  0  0
  2  1  1  0
  3  2  2  0
  4  1  2  0
  5  1  1  0
  6  9  2  0
  7  2  1  0
  8  3  1  0
  9  4  1  0
 10  5  1  0
 11 10  2  0
 12 13  1  0
 13  7  2  0
 14 11  1  0
 15 14  1  0
 16 12  1  0
 17 18  2  0
 18 10  1  0
 19 17  1  0
 20 16  1  0
  3  6  1  0
  8 12  2  0
 14 19  2  0
M  END
>  <ACTIVITY>  (120) 
10

$$$$

     RDKit          2D

 21 23  0  0  0  0  0  0  0  0999 V2000
   -0.6833   -1.9667    0.0000 N   0  0  0  0  0  0  0  0  0  0  0  0
    1.3792   -0.7292    0.0000 C   0  0  0  0  0  0  0  0  0  0  0  0
    0.8667   -1.0292    0.0000 C   0  0  0  0  0  0  0  0  0  0  0  0
    0.8750   -1.6292    0.0000 C   0  0  0  0  0  0  0  0  0  0  0  0
   -0.1625   -1.6542    0.0000 C   0  0  0  0  0  0  0  0  0  0  0  0
    1.9000   -1.0167    0.0000 N   0  0  0  0  0  0  0  0  0  0  0  0
    0.3625   -1.9417    0.0000 C   0  0  0  0  0  0  0  0  0  0  0  0
    1.3750   -0.1292    0.0000 N   0  0  0  0  0  0  0  0  0  0  0  0
    0.3417   -0.7417    0.0000 C   0  0  0  0  0  0  0  0  0  0  0  0
    1.3917   -1.9250    0.0000 N   0  0  0  0  0  0  0  0  0  0  0  0
   -1.2083   -1.6792    0.0000 O   0  0  0  0  0  0  0  0  0  0  0  0
    1.9125   -1.6167    0.0000 C   0  0  0  0  0  0  0  0  0  0  0  0
   -0.6708   -2.5667    0.0000 O   0  0  0  0  0  0  0  0  0  0  0  0
    1.8917    0.1750    0.0000 C   0  0  0  0  0  0  0  0  0  0  0  0
   -0.1750   -1.0542    0.0000 C   0  0  0  0  0  0  0  0  0  0  0  0
    2.4125   -0.1167    0.0000 C   0  0  0  0  0  0  0  0  0  0  0  0
    2.9292    0.1833    0.0000 C   0  0  0  0  0  0  0  0  0  0  0  0
    3.4500   -0.1167    0.0000 Br  0  0  0  0  0  0  0  0  0  0  0  0
    2.4000    1.0833    0.0000 C   0  0  0  0  0  0  0  0  0  0  0  0
    1.8792    0.7750    0.0000 C   0  0  0  0  0  0  0  0  0  0  0  0
    2.9250    0.7833    0.0000 C   0  0  0  0  0  0  0  0  0  0  0  0
  2  3  2  0
  3  9  1  0
  4  7  1  0
  5  1  1  0
  6  2  1  0
  7  5  2  0
  8  2  1  0
  9 15  2  0
 10  4  2  0
 11  1  1  0
 12 10  1  0
 13  1  2  0
 14  8  1  0
 15  5  1  0
 16 14  2  0
 17 16  1  0
 18 17  1  0
 19 20  2  0
 20 14  1  0
 21 19  1  0
  4  3  1  0
 12  6  2  0
 17 21  2  0
M  CHG  2   1   1  11  -1
M  END
>  <ACTIVITY>  (121) 
1000

$$$$

     RDKit          2D

 20 22  0  0  0  0  0  0  0  0999 V2000
    3.7417   -3.4042    0.0000 C   0  0  0  0  0  0  0  0  0  0  0  0
    3.2167   -3.7125    0.0000 C   0  0  0  0  0  0  0  0  0  0  0  0
    4.2667   -3.7125    0.0000 N   0  0  0  0  0  0  0  0  0  0  0  0
    3.7375   -2.8042    0.0000 N   0  0  0  0  0  0  0  0  0  0  0  0
    3.2167   -4.3167    0.0000 C   0  0  0  0  0  0  0  0  0  0  0  0
    3.7417   -4.6167    0.0000 N   0  0  0  0  0  0  0  0  0  0  0  0
    4.2667   -4.3167    0.0000 C   0  0  0  0  0  0  0  0  0  0  0  0
    2.7000   -3.4042    0.0000 C   0  0  0  0  0  0  0  0  0  0  0  0
    4.2542   -2.5042    0.0000 C   0  0  0  0  0  0  0  0  0  0  0  0
    4.7792   -2.8000    0.0000 C   0  0  0  0  0  0  0  0  0  0  0  0
    2.7000   -4.6167    0.0000 C   0  0  0  0  0  0  0  0  0  0  0  0
    2.1792   -3.7125    0.0000 C   0  0  0  0  0  0  0  0  0  0  0  0
    5.3042   -2.5000    0.0000 C   0  0  0  0  0  0  0  0  0  0  0  0
    2.1792   -4.3167    0.0000 C   0  0  0  0  0  0  0  0  0  0  0  0
    5.8292   -2.8000    0.0000 Br  0  0  0  0  0  0  0  0  0  0  0  0
    1.6542   -3.4042    0.0000 O   0  0  0  0  0  0  0  0  0  0  0  0
    4.7750   -1.5917    0.0000 C   0  0  0  0  0  0  0  0  0  0  0  0
    4.2542   -1.9000    0.0000 C   0  0  0  0  0  0  0  0  0  0  0  0
    5.3042   -1.8917    0.0000 C   0  0  0  0  0  0  0  0  0  0  0  0
    1.1292   -3.7125    0.0000 C   0  0  0  0  0  0  0  0  0  0  0  0
  2  1  1  0
  3  1  2  0
  4  1  1  0
  5  2  2  0
  6  7  2  0
  7  3  1  0
  8  2  1  0
  9  4  1  0
 10  9  2  0
 11  5  1  0
 12  8  2  0
 13 10  1  0
 14 12  1  0
 15 13  1  0
 16 12  1  0
 17 18  2  0
 18  9  1  0
 19 17  1  0
 20 16  1  0
  6  5  1  0
 11 14  2  0
 19 13  2  0
M  END
>  <ACTIVITY>  (122) 
354.81

$$$$

     RDKit          2D

 21 23  0  0  0  0  0  0  0  0999 V2000
   -0.7000   -0.8542    0.0000 N   0  0  0  0  0  0  0  0  0  0  0  0
    0.8667   -1.1292    0.0000 C   0  0  0  0  0  0  0  0  0  0  0  0
    1.3792   -0.8250    0.0000 C   0  0  0  0  0  0  0  0  0  0  0  0
    0.3417   -0.8375    0.0000 C   0  0  0  0  0  0  0  0  0  0  0  0
   -0.1750   -1.1500    0.0000 C   0  0  0  0  0  0  0  0  0  0  0  0
    1.9000   -1.1125    0.0000 N   0  0  0  0  0  0  0  0  0  0  0  0
    1.3750   -0.2167    0.0000 N   0  0  0  0  0  0  0  0  0  0  0  0
    0.8750   -1.7292    0.0000 C   0  0  0  0  0  0  0  0  0  0  0  0
   -0.7125   -0.2542    0.0000 O   0  0  0  0  0  0  0  0  0  0  0  0
    1.3917   -2.0167    0.0000 N   0  0  0  0  0  0  0  0  0  0  0  0
    1.9125   -1.7125    0.0000 C   0  0  0  0  0  0  0  0  0  0  0  0
   -1.2208   -1.1667    0.0000 O   0  0  0  0  0  0  0  0  0  0  0  0
    1.8917    0.0833    0.0000 C   0  0  0  0  0  0  0  0  0  0  0  0
    2.4125   -0.2167    0.0000 C   0  0  0  0  0  0  0  0  0  0  0  0
   -0.1625   -1.7542    0.0000 C   0  0  0  0  0  0  0  0  0  0  0  0
    0.3625   -2.0417    0.0000 C   0  0  0  0  0  0  0  0  0  0  0  0
    2.9292    0.0875    0.0000 C   0  0  0  0  0  0  0  0  0  0  0  0
    3.4500   -0.2125    0.0000 Br  0  0  0  0  0  0  0  0  0  0  0  0
    2.4000    0.9833    0.0000 C   0  0  0  0  0  0  0  0  0  0  0  0
    1.8792    0.6833    0.0000 C   0  0  0  0  0  0  0  0  0  0  0  0
    2.9250    0.6875    0.0000 C   0  0  0  0  0  0  0  0  0  0  0  0
  2  4  2  0
  3  2  1  0
  4  5  1  0
  5  1  1  0
  6  3  2  0
  7  3  1  0
  8 16  2  0
  9  1  1  0
 10  8  1  0
 11 10  2  0
 12  1  2  0
 13  7  1  0
 14 13  2  0
 15  5  2  0
 16 15  1  0
 17 14  1  0
 18 17  1  0
 19 20  2  0
 20 13  1  0
 21 19  1  0
  2  8  1  0
 11  6  1  0
 17 21  2  0
M  CHG  2   1   1   9  -1
M  END
>  <ACTIVITY>  (123) 
912.01

$$$$

     RDKit          2D

 21 23  0  0  0  0  0  0  0  0999 V2000
    2.0036   -0.1571    0.0000 F   0  0  0  0  0  0  0  0  0  0  0  0
    2.3055   -1.2841    0.0000 F   0  0  0  0  0  0  0  0  0  0  0  0
    3.1305    0.1448    0.0000 F   0  0  0  0  0  0  0  0  0  0  0  0
    5.5759   -0.5696    0.0000 N   0  0  0  0  0  0  0  0  0  0  0  0
    4.8615    0.6679    0.0000 N   0  0  0  0  0  0  0  0  0  0  0  0
    5.5759    1.9054    0.0000 N   0  0  0  0  0  0  0  0  0  0  0  0
    6.2904    0.6679    0.0000 C   0  0  0  0  0  0  0  0  0  0  0  0
    5.5759    0.2554    0.0000 C   0  0  0  0  0  0  0  0  0  0  0  0
    6.2904    1.4929    0.0000 C   0  0  0  0  0  0  0  0  0  0  0  0
    3.4325   -0.9821    0.0000 C   0  0  0  0  0  0  0  0  0  0  0  0
    4.8615   -0.9821    0.0000 C   0  0  0  0  0  0  0  0  0  0  0  0
    2.7180   -0.5696    0.0000 C   0  0  0  0  0  0  0  0  0  0  0  0
    4.1470   -0.5696    0.0000 C   0  0  0  0  0  0  0  0  0  0  0  0
    7.0049    0.2554    0.0000 C   0  0  0  0  0  0  0  0  0  0  0  0
    3.4325   -1.8071    0.0000 C   0  0  0  0  0  0  0  0  0  0  0  0
    4.8615   -1.8071    0.0000 C   0  0  0  0  0  0  0  0  0  0  0  0
    7.0049    1.9054    0.0000 C   0  0  0  0  0  0  0  0  0  0  0  0
    4.8615    1.4929    0.0000 C   0  0  0  0  0  0  0  0  0  0  0  0
    4.1470   -2.2196    0.0000 C   0  0  0  0  0  0  0  0  0  0  0  0
    7.7193    0.6679    0.0000 C   0  0  0  0  0  0  0  0  0  0  0  0
    7.7193    1.4929    0.0000 C   0  0  0  0  0  0  0  0  0  0  0  0
  1 12  1  0
  2 12  1  0
  3 12  1  0
  4  8  1  0
  4 11  1  0
  5  8  2  0
  5 18  1  0
  6  9  1  0
  6 18  2  0
  7  8  1  0
  7  9  2  0
  7 14  1  0
  9 17  1  0
 10 12  1  0
 10 13  2  0
 10 15  1  0
 11 13  1  0
 11 16  2  0
 14 20  2  0
 15 19  2  0
 16 19  1  0
 17 21  2  0
 20 21  1  0
M  END
>  <ACTIVITY>  (124) 
588.84

$$$$

     RDKit          2D

 18 20  0  0  0  0  0  0  0  0999 V2000
    1.3167   -0.8542    0.0000 C   0  0  0  0  0  0  0  0  0  0  0  0
    0.8042   -1.1625    0.0000 C   0  0  0  0  0  0  0  0  0  0  0  0
    1.8375   -1.1417    0.0000 N   0  0  0  0  0  0  0  0  0  0  0  0
    1.3125   -0.2542    0.0000 N   0  0  0  0  0  0  0  0  0  0  0  0
    1.3292   -2.0542    0.0000 N   0  0  0  0  0  0  0  0  0  0  0  0
    1.8500   -1.7417    0.0000 C   0  0  0  0  0  0  0  0  0  0  0  0
    0.8125   -1.7625    0.0000 C   0  0  0  0  0  0  0  0  0  0  0  0
    1.8292    0.0458    0.0000 C   0  0  0  0  0  0  0  0  0  0  0  0
    2.3500   -0.2500    0.0000 C   0  0  0  0  0  0  0  0  0  0  0  0
    2.8667    0.0500    0.0000 C   0  0  0  0  0  0  0  0  0  0  0  0
    3.3875   -0.2417    0.0000 I   0  0  0  0  0  0  0  0  0  0  0  0
    0.2792   -0.8667    0.0000 C   0  0  0  0  0  0  0  0  0  0  0  0
    2.3375    0.9500    0.0000 C   0  0  0  0  0  0  0  0  0  0  0  0
    1.8167    0.6458    0.0000 C   0  0  0  0  0  0  0  0  0  0  0  0
    2.8625    0.6583    0.0000 C   0  0  0  0  0  0  0  0  0  0  0  0
    0.3000   -2.0750    0.0000 C   0  0  0  0  0  0  0  0  0  0  0  0
   -0.2375   -1.1792    0.0000 C   0  0  0  0  0  0  0  0  0  0  0  0
   -0.2250   -1.7875    0.0000 C   0  0  0  0  0  0  0  0  0  0  0  0
  2  1  1  0
  3  1  2  0
  4  1  1  0
  5  6  2  0
  6  3  1  0
  7  2  2  0
  8  4  1  0
  9  8  2  0
 10  9  1  0
 11 10  1  0
 12  2  1  0
 13 14  2  0
 14  8  1  0
 15 13  1  0
 16  7  1  0
 17 12  2  0
 18 17  1  0
  7  5  1  0
 16 18  2  0
 10 15  2  0
M  END
>  <ACTIVITY>  (125) 
81.28

$$$$

     RDKit          2D

 18 20  0  0  0  0  0  0  0  0999 V2000
    1.2042   -1.5042    0.0000 C   0  0  0  0  0  0  0  0  0  0  0  0
    0.6917   -1.8042    0.0000 C   0  0  0  0  0  0  0  0  0  0  0  0
    1.7292   -1.8000    0.0000 N   0  0  0  0  0  0  0  0  0  0  0  0
    1.2042   -0.9042    0.0000 N   0  0  0  0  0  0  0  0  0  0  0  0
    1.2125   -2.7042    0.0000 N   0  0  0  0  0  0  0  0  0  0  0  0
    1.7292   -2.4042    0.0000 C   0  0  0  0  0  0  0  0  0  0  0  0
    0.6917   -2.4042    0.0000 C   0  0  0  0  0  0  0  0  0  0  0  0
    1.7167   -0.5917    0.0000 C   0  0  0  0  0  0  0  0  0  0  0  0
    2.2375   -0.8917    0.0000 C   0  0  0  0  0  0  0  0  0  0  0  0
    2.7542   -0.6000    0.0000 C   0  0  0  0  0  0  0  0  0  0  0  0
    3.2667   -0.9000    0.0000 Br  0  0  0  0  0  0  0  0  0  0  0  0
    0.1667   -1.5042    0.0000 C   0  0  0  0  0  0  0  0  0  0  0  0
    2.2375    0.2958    0.0000 C   0  0  0  0  0  0  0  0  0  0  0  0
    1.7167   -0.0042    0.0000 C   0  0  0  0  0  0  0  0  0  0  0  0
    2.7542   -0.0042    0.0000 C   0  0  0  0  0  0  0  0  0  0  0  0
    0.1667   -2.7125    0.0000 C   0  0  0  0  0  0  0  0  0  0  0  0
   -0.3458   -1.8125    0.0000 C   0  0  0  0  0  0  0  0  0  0  0  0
   -0.3458   -2.4125    0.0000 C   0  0  0  0  0  0  0  0  0  0  0  0
  2  1  1  0
  3  1  2  0
  4  1  1  0
  5  6  2  0
  6  3  1  0
  7  2  2  0
  8  4  1  0
  9  8  2  0
 10  9  1  0
 11 10  1  0
 12  2  1  0
 13 14  2  0
 14  8  1  0
 15 13  1  0
 16  7  1  0
 17 12  2  0
 18 17  1  0
  7  5  1  0
 16 18  2  0
 10 15  2  0
M  END
>  <ACTIVITY>  (126) 
27.54

$$$$

     RDKit          2D

 18 20  0  0  0  0  0  0  0  0999 V2000
   -1.2964    1.4973    0.0000 C   0  0  0  0  0  0  0  0  0  0  0  0
    0.0000    0.7486    0.0000 C   0  0  0  0  0  0  0  0  0  0  0  0
   -2.6111    0.7486    0.0000 N   0  0  0  0  0  0  0  0  0  0  0  0
   -1.2907    2.9981    0.0000 N   0  0  0  0  0  0  0  0  0  0  0  0
   -1.2964   -1.4973    0.0000 N   0  0  0  0  0  0  0  0  0  0  0  0
   -2.6111   -0.7486    0.0000 C   0  0  0  0  0  0  0  0  0  0  0  0
    0.0000   -0.7486    0.0000 C   0  0  0  0  0  0  0  0  0  0  0  0
   -2.5870    3.7544    0.0000 C   0  0  0  0  0  0  0  0  0  0  0  0
   -2.5835    5.2544    0.0000 C   0  0  0  0  0  0  0  0  0  0  0  0
   -3.8807    6.0076    0.0000 C   0  0  0  0  0  0  0  0  0  0  0  0
   -3.8777    7.2076    0.0000 Cl  0  0  0  0  0  0  0  0  0  0  0  0
    1.2964    1.4973    0.0000 C   0  0  0  0  0  0  0  0  0  0  0  0
   -5.1852    3.7608    0.0000 C   0  0  0  0  0  0  0  0  0  0  0  0
   -3.8880    3.0076    0.0000 C   0  0  0  0  0  0  0  0  0  0  0  0
   -5.1815    5.2608    0.0000 C   0  0  0  0  0  0  0  0  0  0  0  0
    1.2964   -1.4973    0.0000 C   0  0  0  0  0  0  0  0  0  0  0  0
    2.5929    0.7486    0.0000 C   0  0  0  0  0  0  0  0  0  0  0  0
    2.5929   -0.7486    0.0000 C   0  0  0  0  0  0  0  0  0  0  0  0
  1  2  1  0
  1  3  2  0
  1  4  1  0
  3  6  1  0
  5  6  2  0
  2  7  2  0
  5  7  1  0
  4  8  1  0
  8  9  2  0
  9 10  1  0
 10 11  1  0
  2 12  1  0
  8 14  1  0
 13 14  2  0
 10 15  2  0
 13 15  1  0
  7 16  1  0
 12 17  2  0
 16 18  2  0
 17 18  1  0
M  END
>  <ACTIVITY>  (127) 
23.44

$$$$

     RDKit          2D

 18 20  0  0  0  0  0  0  0  0999 V2000
    4.2648   -0.5042    0.0000 N   0  0  0  0  0  0  0  0  0  0  0  0
    3.5504    0.7333    0.0000 N   0  0  0  0  0  0  0  0  0  0  0  0
    4.2648    1.9708    0.0000 N   0  0  0  0  0  0  0  0  0  0  0  0
    4.9793    0.7333    0.0000 C   0  0  0  0  0  0  0  0  0  0  0  0
    4.2648    0.3208    0.0000 C   0  0  0  0  0  0  0  0  0  0  0  0
    4.9793    1.5583    0.0000 C   0  0  0  0  0  0  0  0  0  0  0  0
    3.5504   -0.9167    0.0000 C   0  0  0  0  0  0  0  0  0  0  0  0
    5.6938    0.3208    0.0000 C   0  0  0  0  0  0  0  0  0  0  0  0
    5.6938    1.9708    0.0000 C   0  0  0  0  0  0  0  0  0  0  0  0
    3.5504    1.5583    0.0000 C   0  0  0  0  0  0  0  0  0  0  0  0
    6.4083    0.7333    0.0000 C   0  0  0  0  0  0  0  0  0  0  0  0
    3.5504   -1.7417    0.0000 C   0  0  0  0  0  0  0  0  0  0  0  0
    6.4083    1.5583    0.0000 C   0  0  0  0  0  0  0  0  0  0  0  0
    2.8359   -0.5042    0.0000 C   0  0  0  0  0  0  0  0  0  0  0  0
    2.8359   -2.1542    0.0000 C   0  0  0  0  0  0  0  0  0  0  0  0
    2.1214   -0.9167    0.0000 C   0  0  0  0  0  0  0  0  0  0  0  0
    2.1214   -1.7417    0.0000 C   0  0  0  0  0  0  0  0  0  0  0  0
    2.8359   -2.9792    0.0000 C   0  0  0  0  0  0  0  0  0  0  0  0
  1  5  1  0
  1  7  1  0
  2  5  2  0
  2 10  1  0
  3  6  1  0
  3 10  2  0
  4  5  1  0
  4  6  2  0
  4  8  1  0
  6  9  1  0
  7 12  2  0
  7 14  1  0
  8 11  2  0
  9 13  2  0
 11 13  1  0
 12 15  1  0
 14 16  2  0
 15 17  2  0
 15 18  1  0
 16 17  1  0
M  END
>  <ACTIVITY>  (128) 
912.01

$$$$
